pglib_opf_case3012wp_mp.m
%%%%%%%%%%%%%%%%%%%%%%%%%%%%%%%%%%%%%%%%%%%%%%%%%%%%%%%%%%%%%%%%%%%%%%%%%%%
%%%%                                                                  %%%%%
%%%%    IEEE PES Power Grid Library - Optimal Power Flow - v17.07     %%%%%
%%%%          (https://github.com/power-grid-lib/pglib-opf)           %%%%%
%%%%               Benchmark Group - Typical Operations               %%%%%
%%%%                         26 - June - 2017                         %%%%%
%%%%                                                                  %%%%%
%%%%%%%%%%%%%%%%%%%%%%%%%%%%%%%%%%%%%%%%%%%%%%%%%%%%%%%%%%%%%%%%%%%%%%%%%%%
%
%   Power flow data for Polish system - winter 2007-08 evening peak.
%   Please see CASEFORMAT for details on the case file format.
%
%   This case represents the Polish 400, 220 and 110 kV networks during
%   winter 2007-08 evening peak conditions.
%
%   Copyright (c) 2010 by Roman Korab <roman.korab@polsl.pl>
%   Licensed under the Creative Commons Attribution 4.0
%   International license, http://creativecommons.org/licenses/by/4.0/
%
function mpc = pglib_opf_case3012wp_mp
mpc.version = '2';
mpc.baseMVA = 100.0;

%% area data
%	area	refbus
mpc.areas = [
	1	 1;
];

%% bus data
%	bus_i	type	Pd	Qd	Gs	Bs	area	Vm	Va	baseKV	zone	Vmax	Vmin
mpc.bus = [
	1	 1	 0.0	 0.0	 0.0	 0.0	 1	    1.10687	   -0.30982	 220.0	 1	    1.11000	    0.95000;
	2	 1	 0.0	 0.0	 0.0	 0.0	 1	    1.10785	    1.34583	 220.0	 1	    1.11000	    0.95000;
	3	 1	 0.0	 0.0	 0.0	 0.0	 1	    1.06070	  -28.39229	 220.0	 1	    1.11000	    0.95000;
	4	 1	 0.0	 0.0	 0.0	 0.0	 1	    1.06064	  -28.40188	 220.0	 1	    1.11000	    0.95000;
	5	 1	 0.0	 0.0	 0.0	 0.0	 1	    1.07220	  -31.00649	 220.0	 1	    1.11000	    0.95000;
	6	 1	 0.0	 0.0	 0.0	 0.0	 1	    1.07587	   -5.71952	 220.0	 1	    1.11000	    0.95000;
	7	 1	 0.0	 0.0	 0.0	 0.0	 1	    1.07585	   -5.72098	 220.0	 1	    1.11000	    0.95000;
	8	 1	 0.0	 0.0	 0.0	 0.0	 1	    1.08163	  -17.07274	 220.0	 1	    1.11000	    0.95000;
	9	 1	 0.0	 0.0	 0.0	 0.0	 1	    1.08193	  -17.05468	 220.0	 1	    1.11000	    0.95000;
	10	 1	 0.0	 0.0	 0.0	 0.0	 1	    1.08470	  -20.90907	 220.0	 1	    1.11000	    0.95000;
	11	 1	 0.0	 0.0	 0.0	 0.0	 1	    1.02293	  -12.15501	 400.0	 1	    1.05000	    0.95000;
	12	 1	 0.0	 0.0	 0.0	 0.0	 1	    1.02303	  -12.14544	 400.0	 1	    1.05000	    0.95000;
	13	 1	 0.0	 0.0	 0.0	 0.0	 1	    1.00596	  -16.52978	 400.0	 1	    1.05000	    0.95000;
	14	 1	 0.0	 0.0	 0.0	 0.0	 1	    1.03443	  -16.93619	 220.0	 1	    1.11000	    0.95000;
	15	 1	 0.0	 0.0	 0.0	 0.0	 1	    1.03464	  -16.92890	 220.0	 1	    1.11000	    0.95000;
	16	 1	 0.0	 0.0	 0.0	 0.0	 1	    1.03469	  -16.91611	 220.0	 1	    1.11000	    0.95000;
	17	 1	 0.0	 0.0	 0.0	 0.0	 1	    1.01126	  -21.78270	 220.0	 1	    1.11000	    0.95000;
	18	 1	 0.0	 0.0	 0.0	 0.0	 1	    1.01777	  -21.27292	 220.0	 1	    1.11000	    0.95000;
	19	 1	 0.0	 0.0	 0.0	 0.0	 1	    1.02430	  -10.77350	 400.0	 1	    1.05000	    0.95000;
	20	 1	 0.0	 0.0	 0.0	 0.0	 1	    1.02436	  -10.76384	 400.0	 1	    1.05000	    0.95000;
	21	 1	 0.0	 0.0	 0.0	 0.0	 1	    1.00855	  -20.38237	 400.0	 1	    1.05000	    0.95000;
	22	 1	 0.0	 0.0	 0.0	 0.0	 1	    1.01040	  -16.34178	 400.0	 1	    1.05000	    0.95000;
	23	 1	 0.0	 0.0	 0.0	 0.0	 1	    1.01040	  -16.34178	 400.0	 1	    1.05000	    0.95000;
	24	 2	 10.05	 20.1	 0.0	 0.0	 1	    1.08266	  -22.20934	 220.0	 1	    1.11000	    0.95000;
	25	 2	 10.05	 20.1	 0.0	 0.0	 1	    1.08261	  -22.20484	 220.0	 1	    1.11000	    0.95000;
	26	 1	 0.0	 0.0	 0.0	 0.0	 1	    1.08560	   -4.77130	 220.0	 1	    1.11000	    0.95000;
	27	 1	 0.0	 0.0	 0.0	 0.0	 1	    1.08572	   -4.78378	 220.0	 1	    1.11000	    0.95000;
	28	 1	 0.0	 0.0	 0.0	 0.0	 1	    1.03797	  -18.95661	 220.0	 1	    1.11000	    0.95000;
	29	 1	 0.0	 0.0	 0.0	 0.0	 1	    1.03791	  -18.95461	 220.0	 1	    1.11000	    0.95000;
	30	 1	 0.0	 0.0	 0.0	 0.0	 1	    1.03322	  -16.28731	 220.0	 1	    1.11000	    0.95000;
	31	 1	 0.0	 0.0	 0.0	 0.0	 1	    1.03316	  -16.30226	 220.0	 1	    1.11000	    0.95000;
	32	 1	 0.0	 0.0	 0.0	 0.0	 1	    1.08491	   -2.54002	 220.0	 1	    1.11000	    0.95000;
	33	 1	 0.0	 0.0	 0.0	 0.0	 1	    1.08482	   -2.56291	 220.0	 1	    1.11000	    0.95000;
	34	 1	 0.0	 0.0	 0.0	 0.0	 1	    1.02014	  -14.37736	 400.0	 1	    1.05000	    0.95000;
	35	 1	 0.0	 0.0	 0.0	 0.0	 1	    1.02011	  -14.38223	 400.0	 1	    1.05000	    0.95000;
	36	 1	 0.0	 0.0	 0.0	 0.0	 1	    1.00808	  -17.48949	 400.0	 1	    1.05000	    0.95000;
	37	 3	 48.68	 86.21	 0.0	 0.0	 1	    1.11000	   -0.00000	 220.0	 1	    1.11000	    0.95000;
	38	 2	 54.54	 89.93	 0.0	 0.0	 1	    1.11000	    1.64631	 220.0	 1	    1.11000	    0.95000;
	39	 2	 20.1	 40.19	 0.0	 0.0	 1	    1.11000	    1.64012	 220.0	 1	    1.11000	    0.95000;
	40	 2	 60.29	 120.57	 0.0	 0.0	 1	    1.04800	   -0.07457	 400.0	 1	    1.05000	    0.95000;
	41	 2	 60.29	 120.57	 0.0	 0.0	 1	    1.04796	   -0.06857	 400.0	 1	    1.05000	    0.95000;
	42	 1	 0.0	 0.0	 0.0	 0.0	 1	    1.02517	  -18.26032	 220.0	 1	    1.11000	    0.95000;
	43	 1	 0.0	 0.0	 0.0	 0.0	 1	    1.02506	  -18.26450	 220.0	 1	    1.11000	    0.95000;
	44	 1	 0.0	 0.0	 0.0	 0.0	 1	    1.05000	   -2.03200	 400.0	 1	    1.05000	    0.95000;
	45	 1	 0.0	 0.0	 0.0	 0.0	 1	    1.04998	   -2.03552	 400.0	 1	    1.05000	    0.95000;
	46	 1	 0.0	 0.0	 0.0	 0.0	 1	    1.03040	  -17.30520	 220.0	 1	    1.11000	    0.95000;
	47	 1	 0.0	 0.0	 0.0	 0.0	 1	    1.06072	   -7.87619	 220.0	 1	    1.11000	    0.95000;
	48	 1	 0.0	 0.0	 0.0	 0.0	 1	    1.06074	   -7.89179	 220.0	 1	    1.11000	    0.95000;
	49	 1	 0.0	 0.0	 0.0	 0.0	 1	    1.09578	  -11.02252	 220.0	 2	    1.11000	    0.95000;
	50	 1	 0.0	 0.0	 0.0	 0.0	 1	    1.09289	  -11.71277	 220.0	 2	    1.11000	    0.95000;
	51	 1	 0.0	 0.0	 0.0	 0.0	 1	    1.10535	   -9.99324	 220.0	 2	    1.11000	    0.95000;
	52	 1	 0.0	 0.0	 0.0	 0.0	 1	    1.10532	   -9.99860	 220.0	 2	    1.11000	    0.95000;
	53	 1	 0.0	 0.0	 0.0	 0.0	 1	    1.07351	  -13.21161	 220.0	 2	    1.11000	    0.95000;
	54	 1	 3.23	 1.0	 0.0	 0.0	 1	    1.09935	   -8.70709	 220.0	 2	    1.11000	    0.95000;
	55	 1	 0.0	 0.0	 0.0	 0.0	 1	    1.09941	   -8.70909	 220.0	 2	    1.11000	    0.95000;
	56	 1	 0.0	 0.0	 0.0	 0.0	 1	    1.03590	   -8.89168	 400.0	 2	    1.05000	    0.95000;
	57	 2	 26.12	 60.29	 0.0	 0.0	 1	    1.10991	   -8.02149	 220.0	 2	    1.11000	    0.95000;
	58	 2	 54.26	 120.57	 0.0	 0.0	 1	    1.10981	   -8.02758	 220.0	 2	    1.11000	    0.95000;
	59	 2	 13.06	 30.14	 0.0	 0.0	 1	    1.11000	   -8.02612	 220.0	 2	    1.11000	    0.95000;
	60	 2	 26.12	 50.24	 0.0	 0.0	 1	    1.05000	   -7.16356	 400.0	 2	    1.05000	    0.95000;
	61	 2	 26.12	 50.24	 0.0	 0.0	 1	    1.05000	   -7.15401	 400.0	 2	    1.05000	    0.95000;
	62	 1	 0.0	 0.0	 0.0	 0.0	 1	    1.09384	   -9.43610	 220.0	 2	    1.11000	    0.95000;
	63	 1	 0.0	 0.0	 0.0	 0.0	 1	    1.04493	  -13.05185	 400.0	 2	    1.05000	    0.95000;
	64	 1	 0.0	 0.0	 0.0	 0.0	 1	    1.04493	  -13.05287	 400.0	 2	    1.05000	    0.95000;
	65	 1	 0.0	 0.0	 0.0	 0.0	 1	    1.04779	   -8.75940	 400.0	 2	    1.05000	    0.95000;
	66	 1	 0.0	 0.0	 0.0	 0.0	 1	    1.07996	  -11.49292	 220.0	 2	    1.11000	    0.95000;
	67	 1	 0.0	 0.0	 0.0	 0.0	 1	    1.07995	  -11.48808	 220.0	 2	    1.11000	    0.95000;
	68	 1	 0.0	 0.0	 0.0	 0.0	 1	    1.04566	   -9.07770	 400.0	 2	    1.05000	    0.95000;
	69	 1	 0.0	 0.0	 0.0	 0.0	 1	    1.04565	   -9.08171	 400.0	 2	    1.05000	    0.95000;
	70	 2	 13.06	 30.14	 0.0	 0.0	 1	    1.11000	   -8.86684	 220.0	 2	    1.11000	    0.95000;
	71	 2	 13.06	 30.14	 0.0	 0.0	 1	    1.10993	   -8.86784	 220.0	 2	    1.11000	    0.95000;
	72	 2	 13.06	 30.14	 0.0	 0.0	 1	    1.04319	   -9.12911	 400.0	 2	    1.05000	    0.95000;
	73	 2	 26.12	 60.29	 0.0	 0.0	 1	    1.04322	   -9.12965	 400.0	 2	    1.05000	    0.95000;
	74	 2	 149.71	 60.29	 0.0	 0.0	 1	    1.10484	   -9.34039	 220.0	 2	    1.11000	    0.95000;
	75	 1	 29.14	 10.05	 0.0	 0.0	 1	    1.10482	   -9.34311	 220.0	 2	    1.11000	    0.95000;
	76	 1	 0.0	 0.0	 0.0	 0.0	 1	    1.09625	   -9.66713	 220.0	 2	    1.11000	    0.95000;
	77	 1	 0.0	 0.0	 0.0	 0.0	 1	    1.09625	   -9.66299	 220.0	 2	    1.11000	    0.95000;
	78	 1	 0.0	 0.0	 0.0	 0.0	 1	    1.10232	   -9.61087	 220.0	 2	    1.11000	    0.95000;
	79	 1	 0.0	 0.0	 0.0	 0.0	 1	    1.10234	   -9.61184	 220.0	 2	    1.11000	    0.95000;
	80	 1	 0.0	 0.0	 0.0	 0.0	 1	    1.05000	  -10.63665	 400.0	 2	    1.05000	    0.95000;
	81	 1	 0.0	 0.0	 0.0	 0.0	 1	    1.04997	  -10.64838	 400.0	 2	    1.05000	    0.95000;
	82	 1	 0.0	 0.0	 0.0	 0.0	 1	    1.10150	  -10.77818	 220.0	 2	    1.11000	    0.95000;
	83	 1	 0.0	 0.0	 0.0	 0.0	 1	    1.10233	  -10.64800	 220.0	 2	    1.11000	    0.95000;
	84	 1	 0.0	 0.0	 0.0	 0.0	 1	    1.08120	  -10.34191	 220.0	 2	    1.11000	    0.95000;
	85	 1	 0.0	 0.0	 0.0	 0.0	 1	    1.09186	   -4.01696	 220.0	 3	    1.11000	    0.95000;
	86	 1	 9.35	 0.0	 0.0	 0.0	 1	    1.08539	   -8.58597	 220.0	 3	    1.11000	    0.95000;
	87	 1	 8.18	 0.0	 0.0	 0.0	 1	    1.08541	   -8.58527	 220.0	 3	    1.11000	    0.95000;
	88	 1	 0.0	 0.0	 0.0	 0.0	 1	    1.08658	   -2.84692	 220.0	 3	    1.11000	    0.95000;
	89	 1	 0.0	 0.0	 0.0	 0.0	 1	    1.08671	   -2.83343	 220.0	 3	    1.11000	    0.95000;
	90	 1	 0.0	 0.0	 0.0	 0.0	 1	    1.10862	   -2.58709	 220.0	 3	    1.11000	    0.95000;
	91	 1	 0.0	 0.0	 0.0	 0.0	 1	    1.10862	   -2.58904	 220.0	 3	    1.11000	    0.95000;
	92	 1	 0.0	 0.0	 0.0	 0.0	 1	    1.06362	   -4.29745	 220.0	 3	    1.11000	    0.95000;
	93	 1	 0.0	 0.0	 0.0	 0.0	 1	    1.06335	   -4.30478	 220.0	 3	    1.11000	    0.95000;
	94	 2	 28.13	 70.33	 0.0	 0.0	 1	    1.09678	   -1.96104	 220.0	 3	    1.11000	    0.95000;
	95	 2	 42.2	 103.49	 0.0	 0.0	 1	    1.10029	   -1.46218	 220.0	 3	    1.11000	    0.95000;
	96	 1	 7.72	 -24.99	 0.0	 0.0	 1	    1.08469	   -3.06345	 220.0	 3	    1.11000	    0.95000;
	97	 1	 0.0	 0.0	 0.0	 0.0	 1	    1.08465	   -3.06399	 220.0	 3	    1.11000	    0.95000;
	98	 2	 32.15	 142.68	 0.0	 0.0	 1	    1.05000	   -5.79816	 400.0	 3	    1.05000	    0.95000;
	99	 1	 0.0	 0.0	 0.0	 0.0	 1	    1.04995	   -5.81630	 400.0	 3	    1.05000	    0.95000;
	100	 1	 0.0	 0.0	 0.0	 0.0	 1	    1.06148	   -6.12036	 220.0	 3	    1.11000	    0.95000;
	101	 1	 0.0	 0.0	 0.0	 0.0	 1	    1.10374	   -2.04195	 220.0	 3	    1.11000	    0.95000;
	102	 1	 0.0	 0.0	 0.0	 0.0	 1	    1.10369	   -2.03828	 220.0	 3	    1.11000	    0.95000;
	103	 1	 45.11	 7.94	 0.0	 0.0	 1	    1.09457	   -3.80180	 220.0	 3	    1.11000	    0.95000;
	104	 1	 0.0	 0.0	 0.0	 0.0	 1	    1.09451	   -3.80693	 220.0	 3	    1.11000	    0.95000;
	105	 1	 0.0	 0.0	 0.0	 0.0	 1	    1.09457	   -1.81197	 220.0	 3	    1.11000	    0.95000;
	106	 1	 0.0	 0.0	 0.0	 0.0	 1	    1.09445	   -1.81435	 220.0	 3	    1.11000	    0.95000;
	107	 1	 0.0	 0.0	 0.0	 0.0	 1	    1.09890	   -3.35770	 220.0	 3	    1.11000	    0.95000;
	108	 1	 0.0	 0.0	 0.0	 0.0	 1	    1.09890	   -3.36295	 220.0	 3	    1.11000	    0.95000;
	109	 1	 0.0	 0.0	 0.0	 0.0	 1	    1.04461	   -1.96925	 400.0	 3	    1.05000	    0.95000;
	110	 1	 0.0	 0.0	 0.0	 0.0	 1	    1.04462	   -1.97137	 400.0	 3	    1.05000	    0.95000;
	111	 1	 0.0	 0.0	 0.0	 0.0	 1	    1.09897	   -1.72306	 220.0	 3	    1.11000	    0.95000;
	112	 1	 0.0	 0.0	 0.0	 0.0	 1	    1.09902	   -1.72224	 220.0	 3	    1.11000	    0.95000;
	113	 1	 0.0	 0.0	 0.0	 0.0	 1	    1.08208	   -3.69847	 220.0	 3	    1.11000	    0.95000;
	114	 1	 0.0	 0.0	 0.0	 0.0	 1	    1.08199	   -3.71064	 220.0	 3	    1.11000	    0.95000;
	115	 2	 29.36	 18.51	 0.0	 0.0	 1	    1.09280	   -2.89125	 220.0	 3	    1.11000	    0.95000;
	116	 1	 0.0	 0.0	 0.0	 0.0	 1	    1.09278	   -2.90269	 220.0	 3	    1.11000	    0.95000;
	117	 1	 0.0	 0.0	 0.0	 0.0	 1	    1.08546	   -8.56570	 220.0	 3	    1.11000	    0.95000;
	118	 1	 0.0	 0.0	 0.0	 0.0	 1	    1.08544	   -8.56362	 220.0	 3	    1.11000	    0.95000;
	119	 1	 0.0	 0.0	 0.0	 0.0	 1	    1.04862	   -4.66158	 220.0	 3	    1.11000	    0.95000;
	120	 1	 0.0	 0.0	 0.0	 0.0	 1	    1.04857	   -4.66310	 220.0	 3	    1.11000	    0.95000;
	121	 2	 0.0	 0.0	 0.0	 0.0	 1	    1.10683	   -1.80708	 220.0	 3	    1.11000	    0.95000;
	122	 2	 10.05	 44.21	 0.0	 0.0	 1	    1.10688	   -1.80563	 220.0	 3	    1.11000	    0.95000;
	123	 2	 7.03	 18.09	 0.0	 0.0	 1	    1.10316	   -1.73756	 220.0	 3	    1.11000	    0.95000;
	124	 2	 8.04	 21.1	 0.0	 0.0	 1	    1.10322	   -1.72760	 220.0	 3	    1.11000	    0.95000;
	125	 1	 0.0	 0.0	 0.0	 0.0	 1	    1.08962	   -4.19311	 220.0	 3	    1.11000	    0.95000;
	126	 1	 71.54	 7.94	 0.0	 0.0	 1	    1.08966	   -4.20033	 220.0	 3	    1.11000	    0.95000;
	127	 1	 0.0	 0.0	 0.0	 0.0	 1	    1.04320	   -4.63821	 220.0	 3	    1.11000	    0.95000;
	128	 1	 0.0	 0.0	 0.0	 0.0	 1	    1.08231	   -2.72860	 220.0	 3	    1.11000	    0.95000;
	129	 1	 0.0	 0.0	 0.0	 0.0	 1	    1.08233	   -2.73025	 220.0	 3	    1.11000	    0.95000;
	130	 1	 0.0	 0.0	 0.0	 0.0	 1	    1.08165	   -3.09221	 220.0	 3	    1.11000	    0.95000;
	131	 1	 0.0	 0.0	 0.0	 0.0	 1	    1.08175	   -3.08332	 220.0	 3	    1.11000	    0.95000;
	132	 1	 0.0	 0.0	 0.0	 0.0	 1	    1.04597	   -5.49919	 400.0	 3	    1.05000	    0.95000;
	133	 1	 0.0	 0.0	 0.0	 0.0	 1	    1.04597	   -5.49919	 400.0	 3	    1.05000	    0.95000;
	134	 2	 0.0	 0.0	 0.0	 0.0	 1	    1.09229	   -2.49054	 220.0	 3	    1.11000	    0.95000;
	135	 2	 9.04	 20.1	 0.0	 0.0	 1	    1.09226	   -2.49205	 220.0	 3	    1.11000	    0.95000;
	136	 2	 6.03	 15.07	 0.0	 0.0	 1	    1.06630	   -3.87212	 220.0	 3	    1.11000	    0.95000;
	137	 1	 0.0	 0.0	 0.0	 0.0	 1	    1.06633	   -3.88340	 220.0	 3	    1.11000	    0.95000;
	138	 1	 0.0	 0.0	 0.0	 0.0	 1	    1.04697	  -10.54246	 400.0	 3	    1.05000	    0.95000;
	139	 1	 0.0	 0.0	 0.0	 0.0	 1	    1.04700	  -10.54524	 400.0	 3	    1.05000	    0.95000;
	140	 1	 0.0	 0.0	 0.0	 0.0	 1	    1.05000	   -5.81345	 400.0	 3	    1.05000	    0.95000;
	141	 1	 0.0	 0.0	 0.0	 0.0	 1	    1.05000	   -5.81030	 400.0	 3	    1.05000	    0.95000;
	142	 1	 0.0	 0.0	 0.0	 0.0	 1	    1.03831	   -4.86789	 220.0	 3	    1.11000	    0.95000;
	143	 1	 0.0	 0.0	 0.0	 0.0	 1	    1.03840	   -4.86480	 220.0	 3	    1.11000	    0.95000;
	144	 2	 18.34	 15.86	 0.0	 0.0	 1	    1.10990	   -1.47834	 220.0	 3	    1.11000	    0.95000;
	145	 2	 41.01	 43.07	 0.0	 0.0	 1	    1.11000	   -1.45586	 220.0	 3	    1.11000	    0.95000;
	146	 2	 28.13	 66.31	 0.0	 0.0	 1	    1.04980	   -4.78671	 400.0	 3	    1.05000	    0.95000;
	147	 1	 0.0	 0.0	 0.0	 0.0	 1	    1.04977	   -4.78639	 400.0	 3	    1.05000	    0.95000;
	148	 1	 0.0	 0.0	 0.0	 0.0	 1	    1.09318	   -3.90662	 220.0	 3	    1.11000	    0.95000;
	149	 1	 0.0	 0.0	 0.0	 0.0	 1	    1.09325	   -3.90009	 220.0	 3	    1.11000	    0.95000;
	150	 1	 0.0	 0.0	 0.0	 0.0	 1	    1.10242	   -1.72728	 220.0	 3	    1.11000	    0.95000;
	151	 1	 0.0	 0.0	 0.0	 0.0	 1	    1.09644	   -3.52443	 220.0	 3	    1.11000	    0.95000;
	152	 2	 0.0	 0.0	 0.0	 0.0	 1	    1.06365	   -4.29769	 220.0	 3	    1.11000	    0.95000;
	153	 2	 0.0	 0.0	 0.0	 0.0	 1	    1.06338	   -4.30501	 220.0	 3	    1.11000	    0.95000;
	154	 2	 7.84	 20.1	 0.0	 0.0	 1	    1.08985	  -11.24744	 220.0	 4	    1.11000	    0.95000;
	155	 2	 8.04	 20.1	 0.0	 0.0	 1	    1.08984	  -11.25777	 220.0	 4	    1.11000	    0.95000;
	156	 1	 0.0	 0.0	 0.0	 0.0	 1	    1.06302	  -12.43240	 220.0	 4	    1.11000	    0.95000;
	157	 1	 0.0	 0.0	 0.0	 0.0	 1	    1.06299	  -12.43528	 220.0	 4	    1.11000	    0.95000;
	158	 1	 0.0	 0.0	 0.0	 0.0	 1	    1.05455	  -14.58974	 220.0	 4	    1.11000	    0.95000;
	159	 1	 0.0	 0.0	 0.0	 0.0	 1	    1.08032	  -10.42342	 220.0	 4	    1.11000	    0.95000;
	160	 1	 0.0	 0.0	 0.0	 0.0	 1	    1.08024	  -10.43439	 220.0	 4	    1.11000	    0.95000;
	161	 1	 0.0	 0.0	 0.0	 0.0	 1	    1.02385	  -11.00835	 400.0	 4	    1.05000	    0.95000;
	162	 1	 0.0	 0.0	 0.0	 0.0	 1	    1.02382	  -11.01365	 400.0	 4	    1.05000	    0.95000;
	163	 1	 0.0	 0.0	 0.0	 0.0	 1	    1.02911	  -25.18240	 220.0	 4	    1.11000	    0.95000;
	164	 1	 0.0	 0.0	 0.0	 0.0	 1	    1.07732	  -28.77742	 220.0	 4	    1.11000	    0.95000;
	165	 1	 0.0	 0.0	 0.0	 0.0	 1	    1.07732	  -28.77742	 220.0	 4	    1.11000	    0.95000;
	166	 1	 0.0	 0.0	 0.0	 0.0	 1	    1.07558	  -25.79723	 220.0	 4	    1.11000	    0.95000;
	167	 1	 0.0	 0.0	 0.0	 0.0	 1	    1.07558	  -25.79723	 220.0	 4	    1.11000	    0.95000;
	168	 1	 0.0	 0.0	 0.0	 0.0	 1	    1.05399	  -14.87726	 220.0	 4	    1.11000	    0.95000;
	169	 2	 0.0	 0.0	 0.0	 0.0	 1	    1.08146	  -15.94904	 220.0	 4	    1.11000	    0.95000;
	170	 2	 0.0	 0.0	 0.0	 0.0	 1	    1.08144	  -15.96192	 220.0	 4	    1.11000	    0.95000;
	171	 1	 0.0	 0.0	 0.0	 0.0	 1	    1.11000	  -13.43981	 220.0	 4	    1.11000	    0.95000;
	172	 2	 12.06	 30.14	 0.0	 0.0	 1	    1.10434	  -26.57814	 220.0	 4	    1.11000	    0.95000;
	173	 2	 9.39	 2.43	 0.0	 0.0	 1	    1.10425	  -26.58607	 220.0	 4	    1.11000	    0.95000;
	174	 2	 12.06	 30.14	 0.0	 0.0	 1	    1.03181	  -24.84741	 400.0	 4	    1.05000	    0.95000;
	175	 2	 24.11	 60.29	 0.0	 0.0	 1	    1.03180	  -24.84525	 400.0	 4	    1.05000	    0.95000;
	176	 1	 0.0	 0.0	 0.0	 0.0	 1	    0.99749	  -24.19074	 220.0	 4	    1.11000	    0.95000;
	177	 1	 0.0	 0.0	 0.0	 0.0	 1	    0.99761	  -24.19798	 220.0	 4	    1.11000	    0.95000;
	178	 1	 0.0	 0.0	 0.0	 0.0	 1	    1.05257	  -19.04290	 220.0	 4	    1.11000	    0.95000;
	179	 1	 0.0	 0.0	 0.0	 0.0	 1	    1.05259	  -19.04506	 220.0	 4	    1.11000	    0.95000;
	180	 2	 26.12	 64.3	 0.0	 0.0	 1	    1.11000	   -6.22353	 220.0	 4	    1.11000	    0.95000;
	181	 2	 26.12	 64.3	 0.0	 0.0	 1	    1.11000	   -6.22977	 220.0	 4	    1.11000	    0.95000;
	182	 2	 26.12	 64.51	 0.0	 0.0	 1	    1.11000	   -6.20662	 220.0	 4	    1.11000	    0.95000;
	183	 2	 26.12	 64.51	 0.0	 0.0	 1	    1.04948	   -5.98618	 400.0	 4	    1.05000	    0.95000;
	184	 1	 0.0	 0.0	 0.0	 0.0	 1	    1.04945	   -5.98656	 400.0	 4	    1.05000	    0.95000;
	185	 1	 0.0	 0.0	 0.0	 0.0	 1	    1.08119	  -28.85844	 220.0	 4	    1.11000	    0.95000;
	186	 1	 0.0	 0.0	 0.0	 0.0	 1	    1.08119	  -28.85844	 220.0	 4	    1.11000	    0.95000;
	187	 1	 0.0	 0.0	 0.0	 0.0	 1	    1.01056	  -12.94232	 400.0	 4	    1.05000	    0.95000;
	188	 1	 0.0	 0.0	 0.0	 0.0	 1	    0.98037	  -18.41225	 400.0	 4	    1.05000	    0.95000;
	189	 1	 0.0	 0.0	 0.0	 0.0	 1	    1.02294	  -11.07777	 400.0	 4	    1.05000	    0.95000;
	190	 1	 0.0	 0.0	 0.0	 0.0	 1	    1.02295	  -11.07373	 400.0	 4	    1.05000	    0.95000;
	191	 2	 12.06	 30.14	 0.0	 0.0	 1	    1.08326	  -16.06945	 220.0	 4	    1.11000	    0.95000;
	192	 2	 14.66	 30.65	 0.0	 0.0	 1	    1.08299	  -16.10991	 220.0	 4	    1.11000	    0.95000;
	193	 2	 38.18	 64.3	 0.0	 0.0	 1	    1.02796	   -9.45444	 400.0	 4	    1.05000	    0.95000;
	194	 1	 0.0	 0.0	 0.0	 0.0	 1	    1.01611	  -31.35770	 220.0	 4	    1.11000	    0.95000;
	195	 1	 0.0	 0.0	 0.0	 0.0	 1	    1.01615	  -31.36243	 220.0	 4	    1.11000	    0.95000;
	196	 1	 0.0	 0.0	 0.0	 0.0	 1	    1.07676	  -28.86758	 220.0	 4	    1.11000	    0.95000;
	197	 1	 0.0	 0.0	 0.0	 0.0	 1	    1.07677	  -28.86887	 220.0	 4	    1.11000	    0.95000;
	198	 1	 0.0	 0.0	 0.0	 0.0	 1	    1.02334	  -26.12950	 220.0	 4	    1.11000	    0.95000;
	199	 1	 0.0	 0.0	 0.0	 0.0	 1	    1.02332	  -26.12334	 220.0	 4	    1.11000	    0.95000;
	200	 1	 0.0	 0.0	 0.0	 0.0	 1	    0.98048	  -27.19714	 400.0	 4	    1.05000	    0.95000;
...
];

%% generator data
%	bus	Pg	Qg	Qmax	Qmin	Vg	mBase	status	Pmax	Pmin	Pc1	Pc2	Qc1min	Qc1max	Qc2min	Qc2max	ramp_agc	ramp_10	ramp_30	ramp_q	apf
mpc.gen = [
	24	 128.496	 87.339	 140.0	 -49.0	 1.08266	 235.3	 1	 221.0	 110.0	 0.0	 0.0	 0.0	 0.0	 0.0	 0.0	 0.0	 0.0	 0.0	 0.0	 0.0;
	25	 199.996	 -8.458	 124.0	 -22.0	 1.08261	 235.3	 1	 200.0	 135.0	 0.0	 0.0	 0.0	 0.0	 0.0	 0.0	 0.0	 0.0	 0.0	 0.0	 0.0;
	37	 370.0	 74.626	 190.0	 -19.0	 1.11	 426.0	 1	 370.0	 240.0	 0.0	 0.0	 0.0	 0.0	 0.0	 0.0	 0.0	 0.0	 0.0	 0.0	 0.0;
	37	 370.0	 74.626	 190.0	 -19.0	 1.11	 426.0	 1	 370.0	 240.0	 0.0	 0.0	 0.0	 0.0	 0.0	 0.0	 0.0	 0.0	 0.0	 0.0	 0.0;
	38	 370.0	 17.34	 190.0	 -19.0	 1.11	 426.0	 1	 370.0	 240.0	 0.0	 0.0	 0.0	 0.0	 0.0	 0.0	 0.0	 0.0	 0.0	 0.0	 0.0;
	38	 370.0	 17.34	 190.0	 -19.0	 1.11	 426.0	 1	 370.0	 240.0	 0.0	 0.0	 0.0	 0.0	 0.0	 0.0	 0.0	 0.0	 0.0	 0.0	 0.0;
	39	 370.0	 94.619	 190.0	 -19.0	 1.11	 426.0	 1	 370.0	 240.0	 0.0	 0.0	 0.0	 0.0	 0.0	 0.0	 0.0	 0.0	 0.0	 0.0	 0.0;
	40	 370.0	 65.929	 190.0	 -19.0	 1.048	 426.0	 1	 370.0	 240.0	 0.0	 0.0	 0.0	 0.0	 0.0	 0.0	 0.0	 0.0	 0.0	 0.0	 0.0;
	40	 370.0	 65.929	 190.0	 -19.0	 1.048	 426.0	 1	 370.0	 240.0	 0.0	 0.0	 0.0	 0.0	 0.0	 0.0	 0.0	 0.0	 0.0	 0.0	 0.0;
	40	 370.0	 65.929	 190.0	 -19.0	 1.048	 426.0	 1	 370.0	 240.0	 0.0	 0.0	 0.0	 0.0	 0.0	 0.0	 0.0	 0.0	 0.0	 0.0	 0.0;
	41	 370.0	 -18.995	 190.0	 -19.0	 1.04796	 426.0	 1	 370.0	 240.0	 0.0	 0.0	 0.0	 0.0	 0.0	 0.0	 0.0	 0.0	 0.0	 0.0	 0.0;
	41	 370.0	 -18.995	 190.0	 -19.0	 1.04796	 426.0	 1	 370.0	 240.0	 0.0	 0.0	 0.0	 0.0	 0.0	 0.0	 0.0	 0.0	 0.0	 0.0	 0.0;
	41	 370.0	 -18.995	 190.0	 -19.0	 1.04796	 426.0	 1	 370.0	 240.0	 0.0	 0.0	 0.0	 0.0	 0.0	 0.0	 0.0	 0.0	 0.0	 0.0	 0.0;
	57	 214.999	 54.079	 152.0	 -33.0	 1.10991	 235.0	 1	 215.0	 110.0	 0.0	 0.0	 0.0	 0.0	 0.0	 0.0	 0.0	 0.0	 0.0	 0.0	 0.0;
	57	 219.999	 54.079	 152.0	 -33.0	 1.10991	 235.0	 1	 220.0	 125.0	 0.0	 0.0	 0.0	 0.0	 0.0	 0.0	 0.0	 0.0	 0.0	 0.0	 0.0;
	58	 163.958	 81.886	 149.0	 -33.0	 1.10981	 235.0	 1	 225.0	 125.0	 0.0	 0.0	 0.0	 0.0	 0.0	 0.0	 0.0	 0.0	 0.0	 0.0	 0.0;
	58	 0.0	 0.0	 149.0	 -33.0	 1.10981	 235.0	 0	 225.0	 120.0	 0.0	 0.0	 0.0	 0.0	 0.0	 0.0	 0.0	 0.0	 0.0	 0.0	 0.0;
	58	 153.11	 81.886	 149.0	 -33.0	 1.10981	 235.0	 1	 225.0	 110.0	 0.0	 0.0	 0.0	 0.0	 0.0	 0.0	 0.0	 0.0	 0.0	 0.0	 0.0;
	59	 225.0	 148.782	 149.0	 -33.0	 1.11	 235.0	 1	 225.0	 110.0	 0.0	 0.0	 0.0	 0.0	 0.0	 0.0	 0.0	 0.0	 0.0	 0.0	 0.0;
	60	 535.0	 206.97	 363.0	 -47.0	 1.05	 588.0	 1	 535.0	 255.0	 0.0	 0.0	 0.0	 0.0	 0.0	 0.0	 0.0	 0.0	 0.0	 0.0	 0.0;
	61	 560.0	 -17.053	 348.0	 -100.0	 1.05	 588.0	 1	 560.0	 250.0	 0.0	 0.0	 0.0	 0.0	 0.0	 0.0	 0.0	 0.0	 0.0	 0.0	 0.0;
	70	 129.0	 49.912	 105.0	 -11.0	 1.11	 235.0	 1	 225.0	 129.0	 0.0	 0.0	 0.0	 0.0	 0.0	 0.0	 0.0	 0.0	 0.0	 0.0	 0.0;
	71	 129.0	 33.052	 105.0	 -11.0	 1.10993	 235.0	 1	 225.0	 129.0	 0.0	 0.0	 0.0	 0.0	 0.0	 0.0	 0.0	 0.0	 0.0	 0.0	 0.0;
	71	 0.0	 0.0	 99.0	 -10.0	 1.10993	 235.0	 0	 225.0	 129.0	 0.0	 0.0	 0.0	 0.0	 0.0	 0.0	 0.0	 0.0	 0.0	 0.0	 0.0;
	72	 0.0	 0.0	 105.0	 -11.0	 1.04319	 235.0	 0	 225.0	 129.0	 0.0	 0.0	 0.0	 0.0	 0.0	 0.0	 0.0	 0.0	 0.0	 0.0	 0.0;
	72	 129.0	 -11.0	 105.0	 -11.0	 1.04319	 235.0	 1	 225.0	 129.0	 0.0	 0.0	 0.0	 0.0	 0.0	 0.0	 0.0	 0.0	 0.0	 0.0	 0.0;
	73	 129.0	 -10.0	 99.0	 -10.0	 1.04322	 235.0	 1	 225.0	 129.0	 0.0	 0.0	 0.0	 0.0	 0.0	 0.0	 0.0	 0.0	 0.0	 0.0	 0.0;
	73	 129.0	 -11.0	 105.0	 -11.0	 1.04322	 235.0	 1	 225.0	 129.0	 0.0	 0.0	 0.0	 0.0	 0.0	 0.0	 0.0	 0.0	 0.0	 0.0	 0.0;
	74	 112.0	 60.0	 60.0	 0.0	 1.10484	 120.0	 1	 112.0	 0.0	 0.0	 0.0	 0.0	 0.0	 0.0	 0.0	 0.0	 0.0	 0.0	 0.0	 0.0;
	94	 220.0	 129.155	 131.0	 -6.0	 1.09678	 270.6	 1	 220.0	 125.0	 0.0	 0.0	 0.0	 0.0	 0.0	 0.0	 0.0	 0.0	 0.0	 0.0	 0.0;
	94	 225.0	 129.155	 131.0	 -6.0	 1.09678	 270.6	 1	 225.0	 140.0	 0.0	 0.0	 0.0	 0.0	 0.0	 0.0	 0.0	 0.0	 0.0	 0.0	 0.0;
	95	 225.0	 94.773	 131.0	 -6.0	 1.10029	 270.6	 1	 225.0	 130.0	 0.0	 0.0	 0.0	 0.0	 0.0	 0.0	 0.0	 0.0	 0.0	 0.0	 0.0;
	95	 225.0	 94.773	 131.0	 -6.0	 1.10029	 270.6	 1	 225.0	 125.0	 0.0	 0.0	 0.0	 0.0	 0.0	 0.0	 0.0	 0.0	 0.0	 0.0	 0.0;
	95	 225.0	 94.773	 131.0	 -6.0	 1.10029	 270.6	 1	 225.0	 130.0	 0.0	 0.0	 0.0	 0.0	 0.0	 0.0	 0.0	 0.0	 0.0	 0.0	 0.0;
	98	 220.0	 26.29	 213.0	 -31.0	 1.05	 426.0	 1	 383.0	 220.0	 0.0	 0.0	 0.0	 0.0	 0.0	 0.0	 0.0	 0.0	 0.0	 0.0	 0.0;
	98	 220.0	 15.044	 119.0	 -31.0	 1.05	 435.3	 1	 380.0	 220.0	 0.0	 0.0	 0.0	 0.0	 0.0	 0.0	 0.0	 0.0	 0.0	 0.0	 0.0;
	115	 12.0	 0.0	 0.0	 0.0	 1.0928	 12.0	 1	 12.0	 0.0	 0.0	 0.0	 0.0	 0.0	 0.0	 0.0	 0.0	 0.0	 0.0	 0.0	 0.0;
	115	 6.0	 0.0	 0.0	 0.0	 1.0928	 6.0	 1	 6.0	 0.0	 0.0	 0.0	 0.0	 0.0	 0.0	 0.0	 0.0	 0.0	 0.0	 0.0	 0.0;
	121	 0.0	 0.0	 120.0	 -10.0	 1.10683	 270.6	 0	 225.0	 120.0	 0.0	 0.0	 0.0	 0.0	 0.0	 0.0	 0.0	 0.0	 0.0	 0.0	 0.0;
	122	 225.0	 107.479	 120.0	 -10.0	 1.10688	 270.6	 1	 225.0	 120.0	 0.0	 0.0	 0.0	 0.0	 0.0	 0.0	 0.0	 0.0	 0.0	 0.0	 0.0;
	123	 120.0	 61.6	 73.0	 -1.0	 1.10316	 150.0	 1	 120.0	 70.0	 0.0	 0.0	 0.0	 0.0	 0.0	 0.0	 0.0	 0.0	 0.0	 0.0	 0.0;
	124	 120.0	 34.815	 73.0	 -1.0	 1.10322	 150.0	 1	 120.0	 70.0	 0.0	 0.0	 0.0	 0.0	 0.0	 0.0	 0.0	 0.0	 0.0	 0.0	 0.0;
	134	 0.0	 0.0	 80.0	 0.0	 1.09229	 150.0	 0	 120.0	 70.0	 0.0	 0.0	 0.0	 0.0	 0.0	 0.0	 0.0	 0.0	 0.0	 0.0	 0.0;
	135	 120.0	 80.0	 80.0	 0.0	 1.09226	 150.0	 1	 120.0	 70.0	 0.0	 0.0	 0.0	 0.0	 0.0	 0.0	 0.0	 0.0	 0.0	 0.0	 0.0;
	136	 80.0	 31.0	 31.0	 0.0	 1.0663	 117.5	 1	 110.0	 80.0	 0.0	 0.0	 0.0	 0.0	 0.0	 0.0	 0.0	 0.0	 0.0	 0.0	 0.0;
	144	 215.0	 23.607	 135.0	 -35.0	 1.1099	 270.6	 1	 215.0	 135.0	 0.0	 0.0	 0.0	 0.0	 0.0	 0.0	 0.0	 0.0	 0.0	 0.0	 0.0;
	145	 215.0	 85.068	 135.0	 -35.0	 1.11	 270.6	 1	 215.0	 135.0	 0.0	 0.0	 0.0	 0.0	 0.0	 0.0	 0.0	 0.0	 0.0	 0.0	 0.0;
	145	 225.0	 89.343	 140.0	 -35.0	 1.11	 270.6	 1	 225.0	 135.0	 0.0	 0.0	 0.0	 0.0	 0.0	 0.0	 0.0	 0.0	 0.0	 0.0	 0.0;
	146	 225.0	 42.706	 140.0	 -36.0	 1.0498	 270.6	 1	 225.0	 135.0	 0.0	 0.0	 0.0	 0.0	 0.0	 0.0	 0.0	 0.0	 0.0	 0.0	 0.0;
	146	 220.0	 41.517	 137.0	 -36.0	 1.0498	 270.6	 1	 220.0	 135.0	 0.0	 0.0	 0.0	 0.0	 0.0	 0.0	 0.0	 0.0	 0.0	 0.0	 0.0;
	152	 0.0	 0.0	 72.0	 -29.0	 1.06365	 150.0	 0	 135.0	 -135.0	 0.0	 0.0	 0.0	 0.0	 0.0	 0.0	 0.0	 0.0	 0.0	 0.0	 0.0;
	152	 0.0	 0.0	 72.0	 -29.0	 1.06365	 150.0	 0	 135.0	 -135.0	 0.0	 0.0	 0.0	 0.0	 0.0	 0.0	 0.0	 0.0	 0.0	 0.0	 0.0;
	153	 0.0	 0.0	 72.0	 -29.0	 1.06338	 150.0	 0	 135.0	 -135.0	 0.0	 0.0	 0.0	 0.0	 0.0	 0.0	 0.0	 0.0	 0.0	 0.0	 0.0;
	153	 0.0	 0.0	 72.0	 -29.0	 1.06338	 150.0	 0	 135.0	 -135.0	 0.0	 0.0	 0.0	 0.0	 0.0	 0.0	 0.0	 0.0	 0.0	 0.0	 0.0;
	154	 120.0	 85.0	 85.0	 -15.0	 1.08985	 150.0	 1	 120.0	 94.0	 0.0	 0.0	 0.0	 0.0	 0.0	 0.0	 0.0	 0.0	 0.0	 0.0	 0.0;
	155	 120.0	 85.0	 85.0	 -15.0	 1.08984	 150.0	 1	 120.0	 94.0	 0.0	 0.0	 0.0	 0.0	 0.0	 0.0	 0.0	 0.0	 0.0	 0.0	 0.0;
	155	 0.0	 0.0	 85.0	 -15.0	 1.08984	 150.0	 0	 120.0	 94.0	 0.0	 0.0	 0.0	 0.0	 0.0	 0.0	 0.0	 0.0	 0.0	 0.0	 0.0;
	169	 0.0	 0.0	 25.0	 0.0	 1.08146	 51.4	 0	 50.0	 40.0	 0.0	 0.0	 0.0	 0.0	 0.0	 0.0	 0.0	 0.0	 0.0	 0.0	 0.0;
	170	 0.0	 0.0	 90.0	 -15.0	 1.08144	 150.0	 0	 120.0	 80.0	 0.0	 0.0	 0.0	 0.0	 0.0	 0.0	 0.0	 0.0	 0.0	 0.0	 0.0;
	170	 0.0	 0.0	 25.0	 0.0	 1.08144	 51.4	 0	 50.0	 45.0	 0.0	 0.0	 0.0	 0.0	 0.0	 0.0	 0.0	 0.0	 0.0	 0.0	 0.0;
	172	 226.074	 119.0	 119.0	 -31.0	 1.10434	 252.4	 1	 232.0	 100.0	 0.0	 0.0	 0.0	 0.0	 0.0	 0.0	 0.0	 0.0	 0.0	 0.0	 0.0;
	172	 0.0	 0.0	 111.0	 -21.0	 1.10434	 237.5	 0	 205.0	 135.0	 0.0	 0.0	 0.0	 0.0	 0.0	 0.0	 0.0	 0.0	 0.0	 0.0	 0.0;
	173	 0.0	 0.0	 111.0	 -21.0	 1.10425	 237.5	 0	 205.0	 135.0	 0.0	 0.0	 0.0	 0.0	 0.0	 0.0	 0.0	 0.0	 0.0	 0.0	 0.0;
	173	 0.0	 0.0	 102.0	 -15.0	 1.10425	 252.4	 0	 222.0	 90.0	 0.0	 0.0	 0.0	 0.0	 0.0	 0.0	 0.0	 0.0	 0.0	 0.0	 0.0;
	174	 153.174	 -14.997	 102.0	 -15.0	 1.03181	 252.4	 1	 222.0	 90.0	 0.0	 0.0	 0.0	 0.0	 0.0	 0.0	 0.0	 0.0	 0.0	 0.0	 0.0;
	175	 90.01	 37.747	 102.0	 -15.0	 1.0318	 252.4	 1	 222.0	 90.0	 0.0	 0.0	 0.0	 0.0	 0.0	 0.0	 0.0	 0.0	 0.0	 0.0	 0.0;
	175	 100.01	 37.032	 93.0	 -10.0	 1.0318	 252.4	 1	 232.0	 100.0	 0.0	 0.0	 0.0	 0.0	 0.0	 0.0	 0.0	 0.0	 0.0	 0.0	 0.0;
	180	 261.0	 97.61	 127.0	 -35.0	 1.11	 287.3	 1	 261.0	 104.0	 0.0	 0.0	 0.0	 0.0	 0.0	 0.0	 0.0	 0.0	 0.0	 0.0	 0.0;
	180	 261.0	 97.61	 127.0	 -35.0	 1.11	 287.3	 1	 261.0	 104.0	 0.0	 0.0	 0.0	 0.0	 0.0	 0.0	 0.0	 0.0	 0.0	 0.0	 0.0;
	181	 206.0	 96.82	 103.0	 -17.0	 1.11	 238.4	 1	 206.0	 120.0	 0.0	 0.0	 0.0	 0.0	 0.0	 0.0	 0.0	 0.0	 0.0	 0.0	 0.0;
	181	 261.0	 120.728	 127.0	 -35.0	 1.11	 287.3	 1	 261.0	 104.0	 0.0	 0.0	 0.0	 0.0	 0.0	 0.0	 0.0	 0.0	 0.0	 0.0	 0.0;
	182	 235.0	 10.454	 145.0	 -38.0	 1.11	 263.9	 1	 235.0	 94.0	 0.0	 0.0	 0.0	 0.0	 0.0	 0.0	 0.0	 0.0	 0.0	 0.0	 0.0;
	182	 235.0	 10.454	 145.0	 -38.0	 1.11	 263.9	 1	 235.0	 94.0	 0.0	 0.0	 0.0	 0.0	 0.0	 0.0	 0.0	 0.0	 0.0	 0.0	 0.0;
	183	 206.0	 103.0	 103.0	 -17.0	 1.04948	 238.4	 1	 206.0	 120.0	 0.0	 0.0	 0.0	 0.0	 0.0	 0.0	 0.0	 0.0	 0.0	 0.0	 0.0;
	183	 206.0	 103.0	 103.0	 -17.0	 1.04948	 238.4	 1	 206.0	 120.0	 0.0	 0.0	 0.0	 0.0	 0.0	 0.0	 0.0	 0.0	 0.0	 0.0	 0.0;
	191	 200.0	 104.0	 104.0	 -23.0	 1.08326	 233.2	 1	 200.0	 150.0	 0.0	 0.0	 0.0	 0.0	 0.0	 0.0	 0.0	 0.0	 0.0	 0.0	 0.0;
	192	 200.0	 104.0	 104.0	 -23.0	 1.08299	 233.2	 1	 200.0	 150.0	 0.0	 0.0	 0.0	 0.0	 0.0	 0.0	 0.0	 0.0	 0.0	 0.0	 0.0;
	192	 0.0	 0.0	 104.0	 -23.0	 1.08299	 233.2	 0	 200.0	 145.0	 0.0	 0.0	 0.0	 0.0	 0.0	 0.0	 0.0	 0.0	 0.0	 0.0	 0.0;
	192	 0.0	 0.0	 104.0	 -23.0	 1.08299	 233.2	 0	 200.0	 145.0	 0.0	 0.0	 0.0	 0.0	 0.0	 0.0	 0.0	 0.0	 0.0	 0.0	 0.0;
	193	 464.0	 275.679	 294.0	 -259.0	 1.02796	 464.0	 1	 464.0	 208.0	 0.0	 0.0	 0.0	 0.0	 0.0	 0.0	 0.0	 0.0	 0.0	 0.0	 0.0;
	208	 188.0	 100.0	 100.0	 0.0	 1.07166	 218.3	 1	 188.0	 76.0	 0.0	 0.0	 0.0	 0.0	 0.0	 0.0	 0.0	 0.0	 0.0	 0.0	 0.0;
	240	 179.0	 -61.986	 105.0	 -62.0	 1.0238	 209.0	 1	 179.0	 -200.0	 0.0	 0.0	 0.0	 0.0	 0.0	 0.0	 0.0	 0.0	 0.0	 0.0	 0.0;
	240	 179.0	 -61.986	 105.0	 -62.0	 1.0238	 209.0	 1	 179.0	 -200.0	 0.0	 0.0	 0.0	 0.0	 0.0	 0.0	 0.0	 0.0	 0.0	 0.0	 0.0;
	240	 0.0	 0.0	 160.0	 -100.0	 1.0238	 209.0	 0	 179.0	 -200.0	 0.0	 0.0	 0.0	 0.0	 0.0	 0.0	 0.0	 0.0	 0.0	 0.0	 0.0;
	241	 179.0	 -16.575	 160.0	 -100.0	 1.0238	 209.0	 1	 179.0	 -200.0	 0.0	 0.0	 0.0	 0.0	 0.0	 0.0	 0.0	 0.0	 0.0	 0.0	 0.0;
	244	 220.0	 8.398	 100.0	 0.0	 1.11	 177.1	 1	 220.0	 112.5	 0.0	 0.0	 0.0	 0.0	 0.0	 0.0	 0.0	 0.0	 0.0	 0.0	 0.0;
	254	 44.501	 20.0	 20.0	 0.0	 1.09302	 78.8	 1	 55.0	 23.0	 0.0	 0.0	 0.0	 0.0	 0.0	 0.0	 0.0	 0.0	 0.0	 0.0	 0.0;
	254	 41.008	 20.0	 20.0	 0.0	 1.09302	 68.8	 1	 50.0	 25.0	 0.0	 0.0	 0.0	 0.0	 0.0	 0.0	 0.0	 0.0	 0.0	 0.0	 0.0;
	254	 41.008	 20.0	 20.0	 0.0	 1.09302	 68.8	 1	 50.0	 25.0	 0.0	 0.0	 0.0	 0.0	 0.0	 0.0	 0.0	 0.0	 0.0	 0.0	 0.0;
	254	 16.504	 20.0	 20.0	 0.0	 1.09302	 27.6	 1	 23.0	 7.0	 0.0	 0.0	 0.0	 0.0	 0.0	 0.0	 0.0	 0.0	 0.0	 0.0	 0.0;
	267	 2.1	 1.0	 1.0	 0.0	 1.0582	 0.7	 1	 2.1	 0.45	 0.0	 0.0	 0.0	 0.0	 0.0	 0.0	 0.0	 0.0	 0.0	 0.0	 0.0;
	268	 2.1	 1.0	 1.0	 0.0	 1.07517	 0.7	 1	 2.1	 0.45	 0.0	 0.0	 0.0	 0.0	 0.0	 0.0	 0.0	 0.0	 0.0	 0.0	 0.0;
	278	 0.0	 0.0	 5.0	 0.0	 1.11576	 10.3	 0	 7.15	 5.85	 0.0	 0.0	 0.0	 0.0	 0.0	 0.0	 0.0	 0.0	 0.0	 0.0	 0.0;
	279	 0.0	 0.0	 5.0	 0.0	 1.11989	 10.3	 0	 7.15	 5.85	 0.0	 0.0	 0.0	 0.0	 0.0	 0.0	 0.0	 0.0	 0.0	 0.0	 0.0;
	295	 5.0	 3.75	 3.75	 0.0	 1.08297	 5.0	 1	 5.0	 1.0	 0.0	 0.0	 0.0	 0.0	 0.0	 0.0	 0.0	 0.0	 0.0	 0.0	 0.0;
	295	 5.0	 3.75	 3.75	 0.0	 1.08297	 5.0	 1	 5.0	 1.0	 0.0	 0.0	 0.0	 0.0	 0.0	 0.0	 0.0	 0.0	 0.0	 0.0	 0.0;
	295	 5.0	 3.75	 3.75	 0.0	 1.08297	 5.0	 1	 5.0	 1.0	 0.0	 0.0	 0.0	 0.0	 0.0	 0.0	 0.0	 0.0	 0.0	 0.0	 0.0;
	295	 5.0	 3.75	 3.75	 0.0	 1.08297	 5.0	 1	 5.0	 1.0	 0.0	 0.0	 0.0	 0.0	 0.0	 0.0	 0.0	 0.0	 0.0	 0.0	 0.0;
	310	 370.0	 190.0	 190.0	 -19.0	 1.00025	 426.0	 1	 370.0	 240.0	 0.0	 0.0	 0.0	 0.0	 0.0	 0.0	 0.0	 0.0	 0.0	 0.0	 0.0;
	316	 0.0	 0.0	 2.0	 0.0	 1.05287	 4.0	 0	 5.73	 1.0	 0.0	 0.0	 0.0	 0.0	 0.0	 0.0	 0.0	 0.0	 0.0	 0.0	 0.0;
	316	 0.0	 0.0	 2.0	 0.0	 1.05287	 4.0	 0	 5.73	 1.0	 0.0	 0.0	 0.0	 0.0	 0.0	 0.0	 0.0	 0.0	 0.0	 0.0	 0.0;
	376	 6.6	 5.0	 5.0	 0.0	 1.09173	 8.4	 1	 6.6	 5.4	 0.0	 0.0	 0.0	 0.0	 0.0	 0.0	 0.0	 0.0	 0.0	 0.0	 0.0;
	379	 0.9	 1.0	 1.0	 0.0	 1.1115	 0.9	 1	 0.9	 0.3	 0.0	 0.0	 0.0	 0.0	 0.0	 0.0	 0.0	 0.0	 0.0	 0.0	 0.0;
	379	 0.9	 1.0	 1.0	 0.0	 1.1115	 0.9	 1	 0.9	 0.3	 0.0	 0.0	 0.0	 0.0	 0.0	 0.0	 0.0	 0.0	 0.0	 0.0	 0.0;
	379	 0.9	 1.0	 1.0	 0.0	 1.1115	 0.9	 1	 0.9	 0.3	 0.0	 0.0	 0.0	 0.0	 0.0	 0.0	 0.0	 0.0	 0.0	 0.0	 0.0;
	383	 27.0	 7.0	 7.0	 0.0	 1.11066	 31.3	 1	 27.0	 11.0	 0.0	 0.0	 0.0	 0.0	 0.0	 0.0	 0.0	 0.0	 0.0	 0.0	 0.0;
	383	 30.0	 7.0	 7.0	 0.0	 1.11066	 39.0	 1	 30.0	 11.0	 0.0	 0.0	 0.0	 0.0	 0.0	 0.0	 0.0	 0.0	 0.0	 0.0	 0.0;
	383	 30.0	 6.0	 6.0	 0.0	 1.11066	 40.6	 1	 30.0	 9.0	 0.0	 0.0	 0.0	 0.0	 0.0	 0.0	 0.0	 0.0	 0.0	 0.0	 0.0;
	384	 55.0	 15.0	 15.0	 0.0	 1.11772	 68.8	 1	 55.0	 20.0	 0.0	 0.0	 0.0	 0.0	 0.0	 0.0	 0.0	 0.0	 0.0	 0.0	 0.0;
	384	 55.0	 15.0	 15.0	 0.0	 1.11772	 68.8	 1	 55.0	 20.0	 0.0	 0.0	 0.0	 0.0	 0.0	 0.0	 0.0	 0.0	 0.0	 0.0	 0.0;
	385	 40.0	 5.965	 15.0	 0.0	 1.11735	 48.5	 1	 40.0	 10.0	 0.0	 0.0	 0.0	 0.0	 0.0	 0.0	 0.0	 0.0	 0.0	 0.0	 0.0;
	385	 55.0	 5.965	 15.0	 0.0	 1.11735	 68.8	 1	 55.0	 20.0	 0.0	 0.0	 0.0	 0.0	 0.0	 0.0	 0.0	 0.0	 0.0	 0.0	 0.0;
	387	 50.0	 20.0	 20.0	 0.0	 1.11142	 68.8	 1	 50.0	 25.0	 0.0	 0.0	 0.0	 0.0	 0.0	 0.0	 0.0	 0.0	 0.0	 0.0	 0.0;
	387	 100.0	 20.0	 20.0	 0.0	 1.11142	 147.0	 1	 100.0	 55.0	 0.0	 0.0	 0.0	 0.0	 0.0	 0.0	 0.0	 0.0	 0.0	 0.0	 0.0;
	388	 60.0	 40.0	 40.0	 0.0	 1.11365	 68.8	 1	 60.0	 25.0	 0.0	 0.0	 0.0	 0.0	 0.0	 0.0	 0.0	 0.0	 0.0	 0.0	 0.0;
	399	 2.75	 3.0	 3.0	 0.0	 1.10809	 3.8	 1	 2.75	 2.0	 0.0	 0.0	 0.0	 0.0	 0.0	 0.0	 0.0	 0.0	 0.0	 0.0	 0.0;
	433	 1.65	 1.0	 1.0	 0.0	 1.08398	 1.9	 1	 1.65	 1.35	 0.0	 0.0	 0.0	 0.0	 0.0	 0.0	 0.0	 0.0	 0.0	 0.0	 0.0;
	455	 51.5	 25.645	 57.0	 -22.0	 1.11997	 68.8	 1	 51.5	 15.0	 0.0	 0.0	 0.0	 0.0	 0.0	 0.0	 0.0	 0.0	 0.0	 0.0	 0.0;
	456	 55.0	 10.396	 57.0	 -22.0	 1.12	 68.8	 1	 55.0	 15.0	 0.0	 0.0	 0.0	 0.0	 0.0	 0.0	 0.0	 0.0	 0.0	 0.0	 0.0;
	457	 55.0	 11.232	 57.0	 -22.0	 1.1141	 68.8	 1	 55.0	 15.0	 0.0	 0.0	 0.0	 0.0	 0.0	 0.0	 0.0	 0.0	 0.0	 0.0	 0.0;
	457	 77.0	 11.791	 71.0	 -28.0	 1.1141	 87.5	 1	 77.0	 3.0	 0.0	 0.0	 0.0	 0.0	 0.0	 0.0	 0.0	 0.0	 0.0	 0.0	 0.0;
	458	 55.0	 12.09	 57.0	 -22.0	 1.11681	 68.8	 1	 55.0	 15.0	 0.0	 0.0	 0.0	 0.0	 0.0	 0.0	 0.0	 0.0	 0.0	 0.0	 0.0;
	458	 55.0	 12.09	 57.0	 -22.0	 1.11681	 68.8	 1	 55.0	 15.0	 0.0	 0.0	 0.0	 0.0	 0.0	 0.0	 0.0	 0.0	 0.0	 0.0	 0.0;
	478	 121.911	 40.148	 137.0	 -47.0	 1.10226	 235.3	 1	 226.0	 120.0	 0.0	 0.0	 0.0	 0.0	 0.0	 0.0	 0.0	 0.0	 0.0	 0.0	 0.0;
	478	 13.661	 5.979	 12.0	 0.0	 1.10226	 48.5	 1	 25.0	 12.0	 0.0	 0.0	 0.0	 0.0	 0.0	 0.0	 0.0	 0.0	 0.0	 0.0	 0.0;
	479	 17.0	 12.0	 12.0	 0.0	 1.10005	 48.5	 1	 17.0	 10.0	 0.0	 0.0	 0.0	 0.0	 0.0	 0.0	 0.0	 0.0	 0.0	 0.0	 0.0;
	482	 4.4	 2.0	 2.0	 0.0	 1.10615	 5.6	 1	 4.4	 3.6	 0.0	 0.0	 0.0	 0.0	 0.0	 0.0	 0.0	 0.0	 0.0	 0.0	 0.0;
	500	 0.34	 0.2	 0.2	 0.0	 1.09353	 0.4	 1	 0.34	 0.0	 0.0	 0.0	 0.0	 0.0	 0.0	 0.0	 0.0	 0.0	 0.0	 0.0	 0.0;
	522	 6.6	 4.0	 4.0	 0.0	 1.08873	 8.4	 1	 6.6	 3.0	 0.0	 0.0	 0.0	 0.0	 0.0	 0.0	 0.0	 0.0	 0.0	 0.0	 0.0;
	527	 3.41	 3.0	 3.0	 0.0	 1.11093	 4.6	 1	 3.41	 2.79	 0.0	 0.0	 0.0	 0.0	 0.0	 0.0	 0.0	 0.0	 0.0	 0.0	 0.0;
	532	 6.5	 4.038	 4.7	 3.8	 1.09856	 6.5	 1	 6.5	 1.0	 0.0	 0.0	 0.0	 0.0	 0.0	 0.0	 0.0	 0.0	 0.0	 0.0	 0.0;
	532	 6.5	 4.038	 4.7	 3.8	 1.09856	 6.5	 1	 6.5	 1.0	 0.0	 0.0	 0.0	 0.0	 0.0	 0.0	 0.0	 0.0	 0.0	 0.0	 0.0;
	532	 6.5	 4.038	 4.7	 3.8	 1.09856	 6.5	 1	 6.5	 1.0	 0.0	 0.0	 0.0	 0.0	 0.0	 0.0	 0.0	 0.0	 0.0	 0.0	 0.0;
	543	 2.97	 2.0	 2.0	 0.0	 1.06067	 4.1	 1	 2.97	 2.43	 0.0	 0.0	 0.0	 0.0	 0.0	 0.0	 0.0	 0.0	 0.0	 0.0	 0.0;
	572	 0.0	 0.0	 2.0	 0.0	 1.04421	 4.6	 0	 3.52	 2.88	 0.0	 0.0	 0.0	 0.0	 0.0	 0.0	 0.0	 0.0	 0.0	 0.0	 0.0;
	597	 1.7	 0.7	 0.7	 0.0	 1.08769	 1.9	 1	 1.7	 1.0	 0.0	 0.0	 0.0	 0.0	 0.0	 0.0	 0.0	 0.0	 0.0	 0.0	 0.0;
	597	 0.0	 0.0	 0.7	 0.0	 1.08769	 1.9	 0	 1.7	 1.0	 0.0	 0.0	 0.0	 0.0	 0.0	 0.0	 0.0	 0.0	 0.0	 0.0	 0.0;
	603	 4.4	 3.0	 3.0	 0.0	 1.09212	 5.6	 1	 4.4	 3.0	 0.0	 0.0	 0.0	 0.0	 0.0	 0.0	 0.0	 0.0	 0.0	 0.0	 0.0;
	670	 46.026	 2.0	 35.0	 2.0	 1.08083	 62.5	 1	 52.0	 37.0	 0.0	 0.0	 0.0	 0.0	 0.0	 0.0	 0.0	 0.0	 0.0	 0.0	 0.0;
	670	 22.633	 2.0	 23.0	 2.0	 1.08083	 37.5	 1	 30.0	 10.0	 0.0	 0.0	 0.0	 0.0	 0.0	 0.0	 0.0	 0.0	 0.0	 0.0	 0.0;
	670	 92.518	 6.0	 85.0	 6.0	 1.08083	 150.0	 1	 105.0	 50.0	 0.0	 0.0	 0.0	 0.0	 0.0	 0.0	 0.0	 0.0	 0.0	 0.0	 0.0;
	670	 92.518	 6.0	 85.0	 6.0	 1.08083	 150.0	 1	 105.0	 50.0	 0.0	 0.0	 0.0	 0.0	 0.0	 0.0	 0.0	 0.0	 0.0	 0.0	 0.0;
	671	 28.642	 10.818	 23.0	 2.0	 1.10251	 37.5	 1	 30.0	 10.0	 0.0	 0.0	 0.0	 0.0	 0.0	 0.0	 0.0	 0.0	 0.0	 0.0	 0.0;
	671	 28.642	 10.818	 23.0	 2.0	 1.10251	 37.5	 1	 30.0	 10.0	 0.0	 0.0	 0.0	 0.0	 0.0	 0.0	 0.0	 0.0	 0.0	 0.0	 0.0;
	671	 28.642	 11.492	 25.0	 2.0	 1.10251	 37.5	 1	 30.0	 10.0	 0.0	 0.0	 0.0	 0.0	 0.0	 0.0	 0.0	 0.0	 0.0	 0.0	 0.0;
	671	 123.573	 26.638	 85.0	 6.0	 1.10251	 150.0	 1	 125.0	 68.0	 0.0	 0.0	 0.0	 0.0	 0.0	 0.0	 0.0	 0.0	 0.0	 0.0	 0.0;
	671	 103.574	 26.638	 85.0	 6.0	 1.10251	 150.0	 1	 105.0	 50.0	 0.0	 0.0	 0.0	 0.0	 0.0	 0.0	 0.0	 0.0	 0.0	 0.0	 0.0;
	692	 1.54	 0.0	 0.7	 0.0	 1.07832	 1.9	 1	 1.54	 1.26	 0.0	 0.0	 0.0	 0.0	 0.0	 0.0	 0.0	 0.0	 0.0	 0.0	 0.0;
	694	 1.4	 1.0	 1.0	 0.0	 1.06914	 3.8	 1	 1.4	 0.0	 0.0	 0.0	 0.0	 0.0	 0.0	 0.0	 0.0	 0.0	 0.0	 0.0	 0.0;
	700	 35.0	 18.0	 18.0	 2.0	 1.09847	 37.5	 1	 35.0	 9.0	 0.0	 0.0	 0.0	 0.0	 0.0	 0.0	 0.0	 0.0	 0.0	 0.0	 0.0;
	700	 20.0	 30.0	 30.0	 2.0	 1.09847	 37.5	 1	 20.0	 9.0	 0.0	 0.0	 0.0	 0.0	 0.0	 0.0	 0.0	 0.0	 0.0	 0.0	 0.0;
	701	 35.0	 18.0	 18.0	 2.0	 1.09798	 37.5	 1	 35.0	 9.0	 0.0	 0.0	 0.0	 0.0	 0.0	 0.0	 0.0	 0.0	 0.0	 0.0	 0.0;
	701	 35.0	 18.0	 18.0	 2.0	 1.09798	 37.5	 1	 35.0	 9.0	 0.0	 0.0	 0.0	 0.0	 0.0	 0.0	 0.0	 0.0	 0.0	 0.0	 0.0;
	701	 35.0	 18.0	 18.0	 2.0	 1.09798	 37.5	 1	 35.0	 9.0	 0.0	 0.0	 0.0	 0.0	 0.0	 0.0	 0.0	 0.0	 0.0	 0.0	 0.0;
	701	 97.0	 65.0	 65.0	 6.0	 1.09798	 121.3	 1	 97.0	 30.0	 0.0	 0.0	 0.0	 0.0	 0.0	 0.0	 0.0	 0.0	 0.0	 0.0	 0.0;
	702	 35.0	 18.0	 18.0	 2.0	 1.09855	 37.5	 1	 35.0	 9.0	 0.0	 0.0	 0.0	 0.0	 0.0	 0.0	 0.0	 0.0	 0.0	 0.0	 0.0;
	702	 30.0	 18.0	 18.0	 2.0	 1.09855	 37.5	 1	 30.0	 9.0	 0.0	 0.0	 0.0	 0.0	 0.0	 0.0	 0.0	 0.0	 0.0	 0.0	 0.0;
	702	 28.0	 14.0	 14.0	 2.0	 1.09855	 31.5	 1	 28.0	 9.0	 0.0	 0.0	 0.0	 0.0	 0.0	 0.0	 0.0	 0.0	 0.0	 0.0	 0.0;
	735	 8.0	 4.0	 4.0	 0.0	 1.09531	 5.3	 1	 8.0	 1.0	 0.0	 0.0	 0.0	 0.0	 0.0	 0.0	 0.0	 0.0	 0.0	 0.0	 0.0;
	735	 2.0	 2.0	 2.0	 0.0	 1.09531	 2.0	 1	 2.0	 1.0	 0.0	 0.0	 0.0	 0.0	 0.0	 0.0	 0.0	 0.0	 0.0	 0.0	 0.0;
	752	 4.4	 4.5	 4.5	 0.2	 1.09719	 5.8	 1	 4.4	 3.6	 0.0	 0.0	 0.0	 0.0	 0.0	 0.0	 0.0	 0.0	 0.0	 0.0	 0.0;
	766	 2.7	 0.0	 0.0	 0.0	 1.09857	 5.8	 1	 2.7	 0.0	 0.0	 0.0	 0.0	 0.0	 0.0	 0.0	 0.0	 0.0	 0.0	 0.0	 0.0;
	775	 4.9	 0.0	 0.0	 0.0	 1.09539	 4.0	 1	 4.9	 0.0	 0.0	 0.0	 0.0	 0.0	 0.0	 0.0	 0.0	 0.0	 0.0	 0.0	 0.0;
	798	 93.0	 14.802	 30.0	 0.0	 1.11738	 65.0	 1	 93.0	 0.0	 0.0	 0.0	 0.0	 0.0	 0.0	 0.0	 0.0	 0.0	 0.0	 0.0	 0.0;
	798	 35.9	 14.802	 30.0	 0.0	 1.11738	 65.0	 1	 35.9	 0.0	 0.0	 0.0	 0.0	 0.0	 0.0	 0.0	 0.0	 0.0	 0.0	 0.0	 0.0;
	801	 0.0	 0.0	 0.0	 0.0	 1.06305	 12.4	 0	 2.5	 0.0	 0.0	 0.0	 0.0	 0.0	 0.0	 0.0	 0.0	 0.0	 0.0	 0.0	 0.0;
	808	 6.0	 0.0	 0.0	 0.0	 1.10016	 4.7	 1	 6.0	 0.0	 0.0	 0.0	 0.0	 0.0	 0.0	 0.0	 0.0	 0.0	 0.0	 0.0	 0.0;
	809	 6.0	 0.0	 0.0	 0.0	 1.10043	 5.8	 1	 6.0	 0.0	 0.0	 0.0	 0.0	 0.0	 0.0	 0.0	 0.0	 0.0	 0.0	 0.0	 0.0;
	846	 130.0	 -32.999	 149.0	 -33.0	 1.10915	 235.0	 1	 225.0	 130.0	 0.0	 0.0	 0.0	 0.0	 0.0	 0.0	 0.0	 0.0	 0.0	 0.0	 0.0;
	847	 110.0	 110.866	 149.0	 -33.0	 1.10943	 235.0	 1	 225.0	 110.0	 0.0	 0.0	 0.0	 0.0	 0.0	 0.0	 0.0	 0.0	 0.0	 0.0	 0.0;
	854	 2.5	 0.0	 0.0	 0.0	 1.07691	 3.0	 1	 2.5	 0.0	 0.0	 0.0	 0.0	 0.0	 0.0	 0.0	 0.0	 0.0	 0.0	 0.0	 0.0;
	860	 12.0	 0.0	 0.0	 0.0	 1.09784	 12.4	 1	 12.0	 0.0	 0.0	 0.0	 0.0	 0.0	 0.0	 0.0	 0.0	 0.0	 0.0	 0.0	 0.0;
	870	 170.0	 30.0	 30.0	 0.0	 1.1173	 167.6	 1	 170.0	 66.0	 0.0	 0.0	 0.0	 0.0	 0.0	 0.0	 0.0	 0.0	 0.0	 0.0	 0.0;
	870	 61.0	 30.0	 30.0	 0.0	 1.1173	 71.6	 1	 61.0	 34.0	 0.0	 0.0	 0.0	 0.0	 0.0	 0.0	 0.0	 0.0	 0.0	 0.0	 0.0;
	876	 21.0	 0.0	 0.0	 0.0	 1.10934	 8.3	 1	 21.0	 0.0	 0.0	 0.0	 0.0	 0.0	 0.0	 0.0	 0.0	 0.0	 0.0	 0.0	 0.0;
	890	 7.0	 0.0	 0.0	 0.0	 1.10942	 5.6	 1	 7.0	 0.0	 0.0	 0.0	 0.0	 0.0	 0.0	 0.0	 0.0	 0.0	 0.0	 0.0	 0.0;
	893	 0.0	 0.0	 0.0	 0.0	 1.10692	 3.0	 0	 10.0	 0.0	 0.0	 0.0	 0.0	 0.0	 0.0	 0.0	 0.0	 0.0	 0.0	 0.0	 0.0;
	908	 30.4	 0.0	 0.0	 0.0	 1.10634	 3.0	 1	 30.4	 0.0	 0.0	 0.0	 0.0	 0.0	 0.0	 0.0	 0.0	 0.0	 0.0	 0.0	 0.0;
	913	 2.0	 0.0	 0.0	 0.0	 1.06046	 0.0	 1	 2.0	 0.0	 0.0	 0.0	 0.0	 0.0	 0.0	 0.0	 0.0	 0.0	 0.0	 0.0	 0.0;
	918	 0.0	 0.0	 0.0	 0.0	 1.09294	 1.0	 0	 1.9	 0.0	 0.0	 0.0	 0.0	 0.0	 0.0	 0.0	 0.0	 0.0	 0.0	 0.0	 0.0;
	929	 0.0	 0.0	 0.0	 0.0	 1.09266	 2.1	 0	 2.02	 1.34	 0.0	 0.0	 0.0	 0.0	 0.0	 0.0	 0.0	 0.0	 0.0	 0.0	 0.0;
	934	 129.0	 51.644	 105.0	 -11.0	 1.12	 235.0	 1	 225.0	 129.0	 0.0	 0.0	 0.0	 0.0	 0.0	 0.0	 0.0	 0.0	 0.0	 0.0	 0.0;
	936	 36.0	 12.955	 30.0	 0.0	 1.09515	 36.8	 1	 36.0	 0.0	 0.0	 0.0	 0.0	 0.0	 0.0	 0.0	 0.0	 0.0	 0.0	 0.0	 0.0;
	939	 0.0	 0.0	 0.0	 0.0	 1.09611	 2.8	 0	 2.68	 1.78	 0.0	 0.0	 0.0	 0.0	 0.0	 0.0	 0.0	 0.0	 0.0	 0.0	 0.0;
	959	 101.0	 26.882	 30.0	 0.0	 1.10956	 100.8	 1	 101.0	 49.0	 0.0	 0.0	 0.0	 0.0	 0.0	 0.0	 0.0	 0.0	 0.0	 0.0	 0.0;
	965	 0.0	 0.0	 0.0	 0.0	 1.07332	 1.7	 0	 12.0	 0.0	 0.0	 0.0	 0.0	 0.0	 0.0	 0.0	 0.0	 0.0	 0.0	 0.0	 0.0;
	980	 12.0	 30.0	 30.0	 0.0	 1.10239	 9.5	 1	 12.0	 0.0	 0.0	 0.0	 0.0	 0.0	 0.0	 0.0	 0.0	 0.0	 0.0	 0.0	 0.0;
	982	 0.0	 0.0	 0.0	 0.0	 1.11731	 1.6	 0	 1.6	 0.91	 0.0	 0.0	 0.0	 0.0	 0.0	 0.0	 0.0	 0.0	 0.0	 0.0	 0.0;
	984	 6.0	 0.0	 0.0	 0.0	 1.1079	 5.9	 1	 6.0	 1.0	 0.0	 0.0	 0.0	 0.0	 0.0	 0.0	 0.0	 0.0	 0.0	 0.0	 0.0;
	989	 8.3	 0.0	 0.0	 0.0	 1.09563	 10.9	 1	 8.3	 0.0	 0.0	 0.0	 0.0	 0.0	 0.0	 0.0	 0.0	 0.0	 0.0	 0.0	 0.0;
	993	 68.0	 13.132	 23.0	 0.0	 1.10565	 52.0	 1	 68.0	 5.0	 0.0	 0.0	 0.0	 0.0	 0.0	 0.0	 0.0	 0.0	 0.0	 0.0	 0.0;
	993	 0.0	 0.0	 23.0	 0.0	 1.10565	 52.0	 0	 68.0	 5.0	 0.0	 0.0	 0.0	 0.0	 0.0	 0.0	 0.0	 0.0	 0.0	 0.0	 0.0;
	993	 0.0	 0.0	 11.0	 0.0	 1.10565	 24.5	 0	 31.0	 -32.0	 0.0	 0.0	 0.0	 0.0	 0.0	 0.0	 0.0	 0.0	 0.0	 0.0	 0.0;
	993	 0.0	 0.0	 10.0	 0.0	 1.10565	 24.5	 0	 31.0	 -32.0	 0.0	 0.0	 0.0	 0.0	 0.0	 0.0	 0.0	 0.0	 0.0	 0.0	 0.0;
	1008	 0.0	 0.0	 10.0	 0.0	 1.11541	 69.0	 0	 50.0	 0.0	 0.0	 0.0	 0.0	 0.0	 0.0	 0.0	 0.0	 0.0	 0.0	 0.0	 0.0;
	1008	 92.0	 38.14	 74.0	 -15.0	 1.11541	 57.6	 1	 125.0	 92.0	 0.0	 0.0	 0.0	 0.0	 0.0	 0.0	 0.0	 0.0	 0.0	 0.0	 0.0;
	1009	 84.0	 55.893	 74.0	 -15.0	 1.10423	 57.6	 1	 125.0	 84.0	 0.0	 0.0	 0.0	 0.0	 0.0	 0.0	 0.0	 0.0	 0.0	 0.0	 0.0;
	1009	 0.0	 0.0	 10.0	 0.0	 1.10423	 40.0	 0	 30.0	 0.0	 0.0	 0.0	 0.0	 0.0	 0.0	 0.0	 0.0	 0.0	 0.0	 0.0	 0.0;
	1021	 2.5	 0.0	 0.0	 0.0	 1.10405	 3.3	 1	 2.5	 0.0	 0.0	 0.0	 0.0	 0.0	 0.0	 0.0	 0.0	 0.0	 0.0	 0.0	 0.0;
	1049	 3.35	 0.0	 0.0	 0.0	 1.08464	 3.8	 1	 3.35	 2.23	 0.0	 0.0	 0.0	 0.0	 0.0	 0.0	 0.0	 0.0	 0.0	 0.0	 0.0;
...
];

%% generator cost data
%	2	startup	shutdown	n	c(n-1)	...	c0
mpc.gencost = [
	2	 0.0	 0.0	 3	   0.000000	 158.610000	   0.000000;
	2	 0.0	 0.0	 3	   0.000000	 158.610000	   0.000000;
	2	 0.0	 0.0	 3	   0.000000	 107.030000	   0.000000;
	2	 0.0	 0.0	 3	   0.000000	 107.030000	   0.000000;
	2	 0.0	 0.0	 3	   0.000000	 107.030000	   0.000000;
	2	 0.0	 0.0	 3	   0.000000	 107.030000	   0.000000;
	2	 0.0	 0.0	 3	   0.000000	 107.030000	   0.000000;
	2	 0.0	 0.0	 3	   0.000000	 107.030000	   0.000000;
	2	 0.0	 0.0	 3	   0.000000	 107.030000	   0.000000;
	2	 0.0	 0.0	 3	   0.000000	 107.030000	   0.000000;
	2	 0.0	 0.0	 3	   0.000000	 107.030000	   0.000000;
	2	 0.0	 0.0	 3	   0.000000	 107.030000	   0.000000;
	2	 0.0	 0.0	 3	   0.000000	 107.030000	   0.000000;
	2	 0.0	 0.0	 3	   0.000000	 143.520000	   0.000000;
	2	 0.0	 0.0	 3	   0.000000	 143.520000	   0.000000;
	2	 0.0	 0.0	 3	   0.000000	 143.520000	   0.000000;
	2	 0.0	 0.0	 3	   0.000000	 143.520000	   0.000000;
	2	 0.0	 0.0	 3	   0.000000	 143.520000	   0.000000;
	2	 0.0	 0.0	 3	   0.000000	 143.520000	   0.000000;
	2	 0.0	 0.0	 3	   0.000000	 143.520000	   0.000000;
	2	 0.0	 0.0	 3	   0.000000	 143.520000	   0.000000;
	2	 0.0	 0.0	 3	   0.000000	 148.160000	   0.000000;
	2	 0.0	 0.0	 3	   0.000000	 148.160000	   0.000000;
	2	 0.0	 0.0	 3	   0.000000	 148.160000	   0.000000;
	2	 0.0	 0.0	 3	   0.000000	 148.160000	   0.000000;
	2	 0.0	 0.0	 3	   0.000000	 148.160000	   0.000000;
	2	 0.0	 0.0	 3	   0.000000	 148.160000	   0.000000;
	2	 0.0	 0.0	 3	   0.000000	 148.160000	   0.000000;
	2	 0.0	 0.0	 3	   0.000000	   0.000000	   0.000000;
	2	 0.0	 0.0	 3	   0.000000	 134.040000	   0.000000;
	2	 0.0	 0.0	 3	   0.000000	 134.040000	   0.000000;
	2	 0.0	 0.0	 3	   0.000000	 134.040000	   0.000000;
	2	 0.0	 0.0	 3	   0.000000	 134.040000	   0.000000;
	2	 0.0	 0.0	 3	   0.000000	 134.040000	   0.000000;
	2	 0.0	 0.0	 3	   0.000000	 126.620000	   0.000000;
	2	 0.0	 0.0	 3	   0.000000	 126.620000	   0.000000;
	2	 0.0	 0.0	 3	   0.000000	   0.000000	   0.000000;
	2	 0.0	 0.0	 3	   0.000000	   0.000000	   0.000000;
	2	 0.0	 0.0	 3	   0.000000	 130.490000	   0.000000;
	2	 0.0	 0.0	 3	   0.000000	 130.490000	   0.000000;
	2	 0.0	 0.0	 3	   0.000000	 132.330000	   0.000000;
	2	 0.0	 0.0	 3	   0.000000	 132.330000	   0.000000;
	2	 0.0	 0.0	 3	   0.000000	 136.590000	   0.000000;
	2	 0.0	 0.0	 3	   0.000000	 136.590000	   0.000000;
	2	 0.0	 0.0	 3	   0.000000	 139.960000	   0.000000;
	2	 0.0	 0.0	 3	   0.000000	 128.210000	   0.000000;
	2	 0.0	 0.0	 3	   0.000000	 128.210000	   0.000000;
	2	 0.0	 0.0	 3	   0.000000	 128.210000	   0.000000;
	2	 0.0	 0.0	 3	   0.000000	 128.210000	   0.000000;
	2	 0.0	 0.0	 3	   0.000000	 128.210000	   0.000000;
	2	 0.0	 0.0	 3	   0.000000	 137.400000	   0.000000;
	2	 0.0	 0.0	 3	   0.000000	 137.400000	   0.000000;
	2	 0.0	 0.0	 3	   0.000000	 137.400000	   0.000000;
	2	 0.0	 0.0	 3	   0.000000	 137.400000	   0.000000;
	2	 0.0	 0.0	 3	   0.000000	 129.990000	   0.000000;
	2	 0.0	 0.0	 3	   0.000000	 129.990000	   0.000000;
	2	 0.0	 0.0	 3	   0.000000	 129.990000	   0.000000;
	2	 0.0	 0.0	 3	   0.000000	 135.600000	   0.000000;
	2	 0.0	 0.0	 3	   0.000000	 135.600000	   0.000000;
	2	 0.0	 0.0	 3	   0.000000	 135.600000	   0.000000;
	2	 0.0	 0.0	 3	   0.000000	 163.160000	   0.000000;
	2	 0.0	 0.0	 3	   0.000000	 163.160000	   0.000000;
	2	 0.0	 0.0	 3	   0.000000	 163.160000	   0.000000;
	2	 0.0	 0.0	 3	   0.000000	 163.160000	   0.000000;
	2	 0.0	 0.0	 3	   0.000000	 163.160000	   0.000000;
	2	 0.0	 0.0	 3	   0.000000	 163.160000	   0.000000;
	2	 0.0	 0.0	 3	   0.000000	 163.160000	   0.000000;
	2	 0.0	 0.0	 3	   0.000000	 139.010000	   0.000000;
	2	 0.0	 0.0	 3	   0.000000	 139.010000	   0.000000;
	2	 0.0	 0.0	 3	   0.000000	 139.010000	   0.000000;
	2	 0.0	 0.0	 3	   0.000000	 139.010000	   0.000000;
	2	 0.0	 0.0	 3	   0.000000	 139.010000	   0.000000;
	2	 0.0	 0.0	 3	   0.000000	 139.010000	   0.000000;
	2	 0.0	 0.0	 3	   0.000000	 139.010000	   0.000000;
	2	 0.0	 0.0	 3	   0.000000	 139.010000	   0.000000;
	2	 0.0	 0.0	 3	   0.000000	 125.480000	   0.000000;
	2	 0.0	 0.0	 3	   0.000000	 125.480000	   0.000000;
	2	 0.0	 0.0	 3	   0.000000	 125.480000	   0.000000;
	2	 0.0	 0.0	 3	   0.000000	 125.480000	   0.000000;
	2	 0.0	 0.0	 3	   0.000000	 125.480000	   0.000000;
	2	 0.0	 0.0	 3	   0.000000	 137.400000	   0.000000;
	2	 0.0	 0.0	 3	   0.000000	 137.400000	   0.000000;
	2	 0.0	 0.0	 3	   0.000000	 137.400000	   0.000000;
	2	 0.0	 0.0	 3	   0.000000	 137.400000	   0.000000;
	2	 0.0	 0.0	 3	   0.000000	 137.400000	   0.000000;
	2	 0.0	 0.0	 3	   0.000000	   0.000000	   0.000000;
	2	 0.0	 0.0	 3	   0.000000	   0.000000	   0.000000;
	2	 0.0	 0.0	 3	   0.000000	   0.000000	   0.000000;
	2	 0.0	 0.0	 3	   0.000000	   0.000000	   0.000000;
	2	 0.0	 0.0	 3	   0.000000	   0.000000	   0.000000;
	2	 0.0	 0.0	 3	   0.000000	   0.000000	   0.000000;
	2	 0.0	 0.0	 3	   0.000000	   0.000000	   0.000000;
	2	 0.0	 0.0	 3	   0.000000	   0.000000	   0.000000;
	2	 0.0	 0.0	 3	   0.000000	   0.000000	   0.000000;
	2	 0.0	 0.0	 3	   0.000000	   0.000000	   0.000000;
	2	 0.0	 0.0	 3	   0.000000	   0.000000	   0.000000;
	2	 0.0	 0.0	 3	   0.000000	   0.000000	   0.000000;
	2	 0.0	 0.0	 3	   0.000000	   0.000000	   0.000000;
	2	 0.0	 0.0	 3	   0.000000	 107.030000	   0.000000;
	2	 0.0	 0.0	 3	   0.000000	   0.000000	   0.000000;
	2	 0.0	 0.0	 3	   0.000000	   0.000000	   0.000000;
	2	 0.0	 0.0	 3	   0.000000	   0.000000	   0.000000;
	2	 0.0	 0.0	 3	   0.000000	   0.000000	   0.000000;
	2	 0.0	 0.0	 3	   0.000000	   0.000000	   0.000000;
	2	 0.0	 0.0	 3	   0.000000	   0.000000	   0.000000;
	2	 0.0	 0.0	 3	   0.000000	   0.000000	   0.000000;
	2	 0.0	 0.0	 3	   0.000000	   0.000000	   0.000000;
	2	 0.0	 0.0	 3	   0.000000	   0.000000	   0.000000;
	2	 0.0	 0.0	 3	   0.000000	   0.000000	   0.000000;
	2	 0.0	 0.0	 3	   0.000000	   0.000000	   0.000000;
	2	 0.0	 0.0	 3	   0.000000	   0.000000	   0.000000;
	2	 0.0	 0.0	 3	   0.000000	   0.000000	   0.000000;
	2	 0.0	 0.0	 3	   0.000000	   0.000000	   0.000000;
	2	 0.0	 0.0	 3	   0.000000	   0.000000	   0.000000;
	2	 0.0	 0.0	 3	   0.000000	   0.000000	   0.000000;
	2	 0.0	 0.0	 3	   0.000000	   0.000000	   0.000000;
	2	 0.0	 0.0	 3	   0.000000	   0.000000	   0.000000;
	2	 0.0	 0.0	 3	   0.000000	   0.000000	   0.000000;
	2	 0.0	 0.0	 3	   0.000000	   0.000000	   0.000000;
	2	 0.0	 0.0	 3	   0.000000	   0.000000	   0.000000;
	2	 0.0	 0.0	 3	   0.000000	   0.000000	   0.000000;
	2	 0.0	 0.0	 3	   0.000000	   0.000000	   0.000000;
	2	 0.0	 0.0	 3	   0.000000	   0.000000	   0.000000;
	2	 0.0	 0.0	 3	   0.000000	 158.610000	   0.000000;
	2	 0.0	 0.0	 3	   0.000000	 158.610000	   0.000000;
	2	 0.0	 0.0	 3	   0.000000	 158.610000	   0.000000;
	2	 0.0	 0.0	 3	   0.000000	   0.000000	   0.000000;
	2	 0.0	 0.0	 3	   0.000000	   0.000000	   0.000000;
	2	 0.0	 0.0	 3	   0.000000	   0.000000	   0.000000;
	2	 0.0	 0.0	 3	   0.000000	   0.000000	   0.000000;
	2	 0.0	 0.0	 3	   0.000000	   0.000000	   0.000000;
	2	 0.0	 0.0	 3	   0.000000	   0.000000	   0.000000;
	2	 0.0	 0.0	 3	   0.000000	   0.000000	   0.000000;
	2	 0.0	 0.0	 3	   0.000000	   0.000000	   0.000000;
	2	 0.0	 0.0	 3	   0.000000	   0.000000	   0.000000;
	2	 0.0	 0.0	 3	   0.000000	   0.000000	   0.000000;
	2	 0.0	 0.0	 3	   0.000000	   0.000000	   0.000000;
	2	 0.0	 0.0	 3	   0.000000	   0.000000	   0.000000;
	2	 0.0	 0.0	 3	   0.000000	   0.000000	   0.000000;
	2	 0.0	 0.0	 3	   0.000000	   0.000000	   0.000000;
	2	 0.0	 0.0	 3	   0.000000	   0.000000	   0.000000;
	2	 0.0	 0.0	 3	   0.000000	   0.000000	   0.000000;
	2	 0.0	 0.0	 3	   0.000000	   0.000000	   0.000000;
	2	 0.0	 0.0	 3	   0.000000	   0.000000	   0.000000;
	2	 0.0	 0.0	 3	   0.000000	   0.000000	   0.000000;
	2	 0.0	 0.0	 3	   0.000000	   0.000000	   0.000000;
	2	 0.0	 0.0	 3	   0.000000	   0.000000	   0.000000;
	2	 0.0	 0.0	 3	   0.000000	   0.000000	   0.000000;
	2	 0.0	 0.0	 3	   0.000000	   0.000000	   0.000000;
	2	 0.0	 0.0	 3	   0.000000	   0.000000	   0.000000;
	2	 0.0	 0.0	 3	   0.000000	   0.000000	   0.000000;
	2	 0.0	 0.0	 3	   0.000000	   0.000000	   0.000000;
	2	 0.0	 0.0	 3	   0.000000	   0.000000	   0.000000;
	2	 0.0	 0.0	 3	   0.000000	   0.000000	   0.000000;
	2	 0.0	 0.0	 3	   0.000000	   0.000000	   0.000000;
	2	 0.0	 0.0	 3	   0.000000	   0.000000	   0.000000;
	2	 0.0	 0.0	 3	   0.000000	   0.000000	   0.000000;
	2	 0.0	 0.0	 3	   0.000000	   0.000000	   0.000000;
	2	 0.0	 0.0	 3	   0.000000	   0.000000	   0.000000;
	2	 0.0	 0.0	 3	   0.000000	   0.000000	   0.000000;
	2	 0.0	 0.0	 3	   0.000000	   0.000000	   0.000000;
	2	 0.0	 0.0	 3	   0.000000	   0.000000	   0.000000;
	2	 0.0	 0.0	 3	   0.000000	   0.000000	   0.000000;
	2	 0.0	 0.0	 3	   0.000000	   0.000000	   0.000000;
	2	 0.0	 0.0	 3	   0.000000	   0.000000	   0.000000;
	2	 0.0	 0.0	 3	   0.000000	   0.000000	   0.000000;
	2	 0.0	 0.0	 3	   0.000000	   0.000000	   0.000000;
	2	 0.0	 0.0	 3	   0.000000	   0.000000	   0.000000;
	2	 0.0	 0.0	 3	   0.000000	 143.520000	   0.000000;
	2	 0.0	 0.0	 3	   0.000000	 143.520000	   0.000000;
	2	 0.0	 0.0	 3	   0.000000	   0.000000	   0.000000;
	2	 0.0	 0.0	 3	   0.000000	   0.000000	   0.000000;
	2	 0.0	 0.0	 3	   0.000000	   0.000000	   0.000000;
	2	 0.0	 0.0	 3	   0.000000	   0.000000	   0.000000;
	2	 0.0	 0.0	 3	   0.000000	   0.000000	   0.000000;
	2	 0.0	 0.0	 3	   0.000000	   0.000000	   0.000000;
	2	 0.0	 0.0	 3	   0.000000	   0.000000	   0.000000;
	2	 0.0	 0.0	 3	   0.000000	   0.000000	   0.000000;
	2	 0.0	 0.0	 3	   0.000000	   0.000000	   0.000000;
	2	 0.0	 0.0	 3	   0.000000	   0.000000	   0.000000;
	2	 0.0	 0.0	 3	   0.000000	   0.000000	   0.000000;
	2	 0.0	 0.0	 3	   0.000000	 148.160000	   0.000000;
	2	 0.0	 0.0	 3	   0.000000	   0.000000	   0.000000;
	2	 0.0	 0.0	 3	   0.000000	   0.000000	   0.000000;
	2	 0.0	 0.0	 3	   0.000000	   0.000000	   0.000000;
	2	 0.0	 0.0	 3	   0.000000	   0.000000	   0.000000;
	2	 0.0	 0.0	 3	   0.000000	   0.000000	   0.000000;
	2	 0.0	 0.0	 3	   0.000000	   0.000000	   0.000000;
	2	 0.0	 0.0	 3	   0.000000	   0.000000	   0.000000;
	2	 0.0	 0.0	 3	   0.000000	   0.000000	   0.000000;
	2	 0.0	 0.0	 3	   0.000000	   0.000000	   0.000000;
	2	 0.0	 0.0	 3	   0.000000	   0.000000	   0.000000;
	2	 0.0	 0.0	 3	   0.000000	   0.000000	   0.000000;
	2	 0.0	 0.0	 3	   0.000000	   0.000000	   0.000000;
	2	 0.0	 0.0	 3	   0.000000	 157.000000	   0.000000;
	2	 0.0	 0.0	 3	   0.000000	 157.000000	   0.000000;
	2	 0.0	 0.0	 3	   0.000000	 157.000000	   0.000000;
	2	 0.0	 0.0	 3	   0.000000	 157.000000	   0.000000;
	2	 0.0	 0.0	 3	   0.000000	   0.000000	   0.000000;
	2	 0.0	 0.0	 3	   0.000000	   0.000000	   0.000000;
...
];

%% branch data
%	fbus	tbus	r	x	b	rateA	rateB	rateC	ratio	angle	status	angmin	angmax
mpc.branch = [
	9	 11	 0.00064	 0.0305	 0.0	 400.0	 400.0	 400.0	 1.10224	 0.0	 1	 -30.0	 30.0;
	13	 12	 0.00069	 0.03946	 0.0	 250.0	 250.0	 250.0	 0.9999	 0.0	 1	 -30.0	 30.0;
	21	 19	 0.00088	 0.05709	 0.0	 330.0	 330.0	 330.0	 0.9999	 0.0	 1	 -30.0	 30.0;
	36	 35	 0.0007	 0.03652	 0.0	 250.0	 250.0	 250.0	 0.9999	 0.0	 1	 -30.0	 30.0;
	37	 40	 0.00036	 0.02519	 0.0	 500.0	 500.0	 500.0	 1.0686	 0.0	 1	 -30.0	 30.0;
	38	 41	 0.00036	 0.02519	 0.0	 500.0	 500.0	 500.0	 1.08671	 0.0	 1	 -30.0	 30.0;
	55	 56	 0.00034	 0.02097	 0.0	 500.0	 500.0	 500.0	 1.0755	 0.0	 1	 -30.0	 30.0;
	59	 61	 0.00034	 0.02097	 0.0	 500.0	 500.0	 500.0	 1.05955	 0.0	 1	 -30.0	 30.0;
	70	 72	 0.00081	 0.03	 0.0	 400.0	 400.0	 400.0	 1.0876	 0.0	 1	 -30.0	 30.0;
	107	 109	 0.00075	 0.02445	 -0.00832	 330.0	 330.0	 330.0	 1.06467	 0.0	 1	 -30.0	 30.0;
	108	 110	 0.0004	 0.0253	 0.0	 500.0	 500.0	 500.0	 1.07013	 0.0	 1	 -30.0	 30.0;
	144	 147	 0.00053	 0.02875	 -0.016	 400.0	 400.0	 400.0	 1.07702	 0.0	 1	 -30.0	 30.0;
	173	 174	 0.00064	 0.0305	 0.0	 400.0	 400.0	 400.0	 1.06172	 0.0	 1	 -30.0	 30.0;
	182	 183	 0.00023	 0.023	 0.0	 500.0	 500.0	 500.0	 1.07426	 0.0	 1	 -30.0	 30.0;
	181	 184	 0.00023	 0.023	 0.0	 500.0	 500.0	 500.0	 1.07426	 0.0	 1	 -30.0	 30.0;
	188	 187	 0.00032	 0.04392	 0.0	 330.0	 330.0	 330.0	 0.9999	 0.0	 1	 -30.0	 30.0;
	191	 193	 0.0003	 0.02732	 0.0	 500.0	 500.0	 500.0	 1.10871	 0.0	 1	 -30.0	 30.0;
	198	 200	 0.00035	 0.02375	 0.0	 500.0	 500.0	 500.0	 1.07313	 0.0	 1	 -30.0	 30.0;
	212	 213	 0.00051	 0.0275	 0.0	 400.0	 400.0	 400.0	 1.10394	 0.0	 1	 -30.0	 30.0;
	217	 215	 0.00084	 0.06858	 0.0	 250.0	 250.0	 250.0	 0.9999	 0.0	 1	 -30.0	 30.0;
	220	 222	 0.00033	 0.02711	 0.0	 500.0	 500.0	 500.0	 1.08613	 0.0	 1	 -30.0	 30.0;
	224	 222	 0.00032	 0.0464	 0.0	 330.0	 330.0	 330.0	 0.9999	 0.0	 1	 -30.0	 30.0;
	231	 229	 0.00113	 0.05647	 0.0	 330.0	 330.0	 330.0	 0.9999	 0.0	 1	 -30.0	 30.0;
	228	 230	 0.00075	 0.02469	 -0.008	 330.0	 330.0	 330.0	 1.04544	 0.0	 1	 -30.0	 30.0;
	3010	 183	 0.00029	 0.00317	 0.09184	 773	 773	 773	 0.0	 0.0	 1	 -30.0	 30.0;
	3010	 184	 0.0003	 0.00326	 0.09536	 771	 771	 771	 0.0	 0.0	 1	 -30.0	 30.0;
	244	 84	 0.01475	 0.08595	 0.13036	 315	 315	 315	 0.0	 0.0	 1	 -30.0	 30.0;
	3007	 92	 0.01244	 0.06959	 0.1181	 309	 309	 309	 0.0	 0.0	 1	 -30.0	 30.0;
	3007	 122	 0.01207	 0.06905	 0.11519	 312	 312	 312	 0.0	 0.0	 1	 -30.0	 30.0;
	146	 3008	 0.00168	 0.01604	 0.51488	 724	 724	 724	 0.0	 0.0	 1	 -30.0	 30.0;
	3011	 172	 0.0018	 0.01616	 0.0484	 387	 387	 387	 0.0	 0.0	 1	 -30.0	 30.0;
	3011	 173	 0.0018	 0.01616	 0.0484	 387	 387	 387	 0.0	 0.0	 1	 -30.0	 30.0;
	3012	 63	 0.00223	 0.02209	 0.69011	 737	 737	 737	 0.0	 0.0	 1	 -30.0	 30.0;
	3012	 64	 0.00223	 0.02209	 0.69011	 737	 737	 737	 0.0	 0.0	 1	 -30.0	 30.0;
	99	 3006	 0.00293	 0.03054	 0.95472	 755	 755	 755	 0.0	 0.0	 1	 -30.0	 30.0;
	58	 30	 0.01174	 0.07014	 0.12689	 319	 319	 319	 0.0	 0.0	 1	 -30.0	 30.0;
	37	 107	 0.00919	 0.06614	 0.10451	 348	 348	 348	 0.0	 0.0	 1	 -30.0	 30.0;
	38	 108	 0.00822	 0.05767	 0.0982	 344	 344	 344	 0.0	 0.0	 1	 -30.0	 30.0;
	169	 42	 0.01698	 0.12459	 0.1957	 256	 256	 256	 0.0	 0.0	 1	 -30.0	 30.0;
	155	 48	 0.01298	 0.06738	 0.10284	 298	 298	 298	 0.0	 0.0	 1	 -30.0	 30.0;
	154	 27	 0.01068	 0.0475	 0.09495	 277	 277	 277	 0.0	 0.0	 1	 -30.0	 30.0;
	191	 28	 0.01436	 0.10729	 0.16081	 298	 298	 298	 0.0	 0.0	 1	 -30.0	 30.0;
	55	 126	 0.01488	 0.08161	 0.1148	 306	 306	 306	 0.0	 0.0	 1	 -30.0	 30.0;
	54	 108	 0.01116	 0.07171	 0.10367	 330	 330	 330	 0.0	 0.0	 1	 -30.0	 30.0;
	207	 100	 0.00552	 0.05948	 0.17077	 422	 422	 422	 0.0	 0.0	 1	 -30.0	 30.0;
	238	 192	 0.01118	 0.06597	 0.10778	 317	 317	 317	 0.0	 0.0	 1	 -30.0	 30.0;
	226	 191	 0.01682	 0.08909	 0.12993	 301	 301	 301	 0.0	 0.0	 1	 -30.0	 30.0;
	225	 192	 0.01384	 0.08702	 0.13484	 327	 327	 327	 0.0	 0.0	 1	 -30.0	 30.0;
	242	 195	 0.01517	 0.09938	 0.14492	 274.0	 274.0	 274.0	 0.0	 0.0	 1	 -30.0	 30.0;
	59	 16	 0.01347	 0.07316	 0.13418	 305	 305	 305	 0.0	 0.0	 1	 -30.0	 30.0;
	233	 25	 0.01403	 0.10413	 0.15949	 307	 307	 307	 0.0	 0.0	 1	 -30.0	 30.0;
	117	 70	 0.00374	 0.0438	 0.10096	 439	 439	 439	 0.0	 0.0	 1	 -30.0	 30.0;
	190	 99	 0.00194	 0.02007	 0.54307	 753	 753	 753	 0.0	 0.0	 1	 -30.0	 30.0;
	60	 12	 0.0015	 0.01506	 0.4032	 742	 742	 742	 0.0	 0.0	 1	 -30.0	 30.0;
	214	 174	 0.00296	 0.03484	 0.9296	 800	 800	 800	 0.0	 0.0	 1	 -30.0	 30.0;
	138	 72	 0.00169	 0.01931	 0.53814	 789	 789	 789	 0.0	 0.0	 1	 -30.0	 30.0;
	41	 110	 0.00137	 0.01569	 0.43744	 790	 790	 790	 0.0	 0.0	 1	 -30.0	 30.0;
	40	 141	 0.00234	 0.02677	 0.74653	 790	 790	 790	 0.0	 0.0	 1	 -30.0	 30.0;
	34	 222	 0.00217	 0.02513	 0.67098	 794	 794	 794	 0.0	 0.0	 1	 -30.0	 30.0;
	138	 80	 0.00152	 0.01739	 0.48083	 790	 790	 790	 0.0	 0.0	 1	 -30.0	 30.0;
	140	 80	 0.00468	 0.05347	 1.48883	 537	 537	 537	 0.0	 0.0	 1	 -30.0	 30.0;
	99	 44	 0.00355	 0.03617	 0.95894	 747	 747	 747	 0.0	 0.0	 1	 -30.0	 30.0;
	109	 40	 0.00195	 0.02103	 0.5679	 768	 768	 768	 0.0	 0.0	 1	 -30.0	 30.0;
	63	 139	 0.00144	 0.01446	 0.51213	 742	 742	 742	 0.0	 0.0	 1	 -30.0	 30.0;
	14	 6	 0.013	 0.09781	 0.14013	 326	 326	 326	 0.0	 0.0	 1	 -30.0	 30.0;
	43	 14	 0.00525	 0.03847	 0.06053	 351	 351	 351	 0.0	 0.0	 1	 -30.0	 30.0;
	33	 6	 0.00457	 0.03351	 0.05245	 352	 352	 352	 0.0	 0.0	 1	 -30.0	 30.0;
	24	 9	 0.01469	 0.10915	 0.16676	 293	 293	 293	 0.0	 0.0	 1	 -30.0	 30.0;
	29	 16	 0.01262	 0.09326	 0.14324	 342	 342	 342	 0.0	 0.0	 1	 -30.0	 30.0;
	37	 7	 0.00924	 0.05052	 0.07698	 306	 306	 306	 0.0	 0.0	 1	 -30.0	 30.0;
	24	 3	 0.01068	 0.07936	 0.12155	 274.0	 274.0	 274.0	 0.0	 0.0	 1	 -30.0	 30.0;
	37	 27	 0.00585	 0.04027	 0.07161	 341	 341	 341	 0.0	 0.0	 1	 -30.0	 30.0;
	39	 26	 0.00585	 0.04027	 0.07161	 341	 341	 341	 0.0	 0.0	 1	 -30.0	 30.0;
	15	 8	 0.00558	 0.04147	 0.0629	 354	 354	 354	 0.0	 0.0	 1	 -30.0	 30.0;
	46	 14	 0.00089	 0.0063	 0.0108	 346	 346	 346	 0.0	 0.0	 1	 -30.0	 30.0;
	31	 15	 0.00442	 0.02374	 0.04477	 303	 303	 303	 0.0	 0.0	 1	 -30.0	 30.0;
	47	 7	 0.00494	 0.0269	 0.04225	 305	 305	 305	 0.0	 0.0	 1	 -30.0	 30.0;
	26	 6	 0.00287	 0.01671	 0.02467	 315	 315	 315	 0.0	 0.0	 1	 -30.0	 30.0;
	37	 1	 0.0012	 0.0089	 0.01512	 353	 353	 353	 0.0	 0.0	 1	 -30.0	 30.0;
	39	 2	 0.0012	 0.0089	 0.01513	 353	 353	 353	 0.0	 0.0	 1	 -30.0	 30.0;
	38	 32	 0.00399	 0.02901	 0.04808	 350	 350	 350	 0.0	 0.0	 1	 -30.0	 30.0;
	34	 12	 0.00298	 0.03445	 0.94221	 794	 794	 794	 0.0	 0.0	 1	 -30.0	 30.0;
	40	 34	 0.00358	 0.04122	 1.13382	 696	 696	 696	 0.0	 0.0	 1	 -30.0	 30.0;
...